<?xml version="1.0" encoding="ISO-8859-1"?>
<febio_spec version="3.0">
	<Module type="solid"/>
	<Globals>
		<Constants>
			<T>0</T>
			<R>0</R>
			<Fc>0</Fc>
		</Constants>
	</Globals>
	<Material>
		<material id="1" name="neohook" type="neo-Hookean">
			<density>1</density>
			<E>10</E>
			<v>0.4</v>
		</material>
		<material id="2" name="Material2" type="rigid body">
			<density>1</density>
			<center_of_mass>0,0,0</center_of_mass>
		</material>
	</Material>
	<Mesh>
		<Nodes name="Object3">
			<node id="1">0,0,0</node>
			<node id="2">80,0,0</node>
			<node id="3">100,0,0</node>
			<node id="4">100,50,0</node>
			<node id="5">80,50,0</node>
			<node id="6">72.9289322,52.9289322,0</node>
			<node id="7">70,60,0</node>
			<node id="8">70,310,0</node>
			<node id="9">0,310,0</node>
			<node id="10">0,60,0</node>
			<node id="11">0,0,30</node>
			<node id="12">80,0,30</node>
			<node id="13">100,0,30</node>
			<node id="14">100,50,30</node>
			<node id="15">80,50,30</node>
			<node id="16">72.9289322,52.9289322,30</node>
			<node id="17">70,60,30</node>
			<node id="18">70,310,30</node>
			<node id="19">0,310,30</node>
			<node id="20">0,60,30</node>
<!-- ... 2070 like lines cut -->
		</Nodes>
		<Nodes name="Object2">
			<node id="2091">-150,-50,30</node>
			<node id="2092">150,-50,30</node>
			<node id="2093">150,50,30</node>
			<node id="2094">-150,50,30</node>
			<node id="2095">-150,-50,80</node>
			<node id="2096">150,-50,80</node>
			<node id="2097">150,50,80</node>
			<node id="2098">-150,50,80</node>
			<node id="2099">-120,-50,30</node>
			<node id="2100">-90,-50,30</node>
			<node id="2101">-60,-50,30</node>
			<node id="2102">-30,-50,30</node>
			<node id="2103">0,-50,30</node>
			<node id="2104">30,-50,30</node>
			<node id="2105">60,-50,30</node>
			<node id="2106">90,-50,30</node>
			<node id="2107">120,-50,30</node>
			<node id="2108">150,-50,35</node>
			<node id="2109">150,-50,40</node>
			<node id="2110">150,-50,45</node>
<!-- ... 1311 like lines cut -->
		</Nodes>
		<Elements type="hex8" name="Part1">
			<elem id="1">1,21,397,79,36,273,1200,338</elem>
			<elem id="2">21,22,398,397,273,274,1201,1200</elem>
			<elem id="3">22,23,399,398,274,275,1202,1201</elem>
			<elem id="4">23,24,400,399,275,276,1203,1202</elem>
			<elem id="5">24,25,401,400,276,277,1204,1203</elem>
			<elem id="6">25,2,37,401,277,26,288,1204</elem>
			<elem id="7">79,397,392,78,338,1200,1205,337</elem>
			<elem id="8">397,398,393,392,1200,1201,1206,1205</elem>
			<elem id="9">398,399,394,393,1201,1202,1207,1206</elem>
			<elem id="10">399,400,395,394,1202,1203,1208,1207</elem>
			<elem id="11">400,401,396,395,1203,1204,1209,1208</elem>
			<elem id="12">401,37,38,396,1204,288,289,1209</elem>
			<elem id="13">78,392,387,77,337,1205,1210,336</elem>
			<elem id="14">392,393,388,387,1205,1206,1211,1210</elem>
			<elem id="15">393,394,389,388,1206,1207,1212,1211</elem>
			<elem id="16">394,395,390,389,1207,1208,1213,1212</elem>
			<elem id="17">395,396,391,390,1208,1209,1214,1213</elem>
			<elem id="18">396,38,39,391,1209,289,290,1214</elem>
			<elem id="19">77,387,382,76,336,1210,1215,335</elem>
			<elem id="20">387,388,383,382,1210,1211,1216,1215</elem>
<!-- ... 1460 like lines cut -->
		</Elements>
		<Elements type="hex8" name="Part4">
			<elem id="1481">2091,2099,2603,2197,2134,2207,2693,2458</elem>
			<elem id="1482">2099,2100,2604,2603,2207,2208,2694,2693</elem>
			<elem id="1483">2100,2101,2605,2604,2208,2209,2695,2694</elem>
			<elem id="1484">2101,2102,2606,2605,2209,2210,2696,2695</elem>
			<elem id="1485">2102,2103,2607,2606,2210,2211,2697,2696</elem>
			<elem id="1486">2103,2104,2608,2607,2211,2212,2698,2697</elem>
			<elem id="1487">2104,2105,2609,2608,2212,2213,2699,2698</elem>
			<elem id="1488">2105,2106,2610,2609,2213,2214,2700,2699</elem>
			<elem id="1489">2106,2107,2611,2610,2214,2215,2701,2700</elem>
			<elem id="1490">2107,2092,2135,2611,2215,2108,2288,2701</elem>
			<elem id="1491">2197,2603,2594,2196,2458,2693,2702,2457</elem>
			<elem id="1492">2603,2604,2595,2594,2693,2694,2703,2702</elem>
			<elem id="1493">2604,2605,2596,2595,2694,2695,2704,2703</elem>
			<elem id="1494">2605,2606,2597,2596,2695,2696,2705,2704</elem>
			<elem id="1495">2606,2607,2598,2597,2696,2697,2706,2705</elem>
			<elem id="1496">2607,2608,2599,2598,2697,2698,2707,2706</elem>
			<elem id="1497">2608,2609,2600,2599,2698,2699,2708,2707</elem>
			<elem id="1498">2609,2610,2601,2600,2699,2700,2709,2708</elem>
			<elem id="1499">2610,2611,2602,2601,2700,2701,2710,2709</elem>
			<elem id="1500">2611,2135,2136,2602,2701,2288,2289,2710</elem>
<!-- ... 980 like lines cut -->
		</Elements>
		<Surface name="FixedDisplacement1">
			<quad4 id="1">6,62,357,71</quad4>
			<quad4 id="2">62,61,358,357</quad4>
			<quad4 id="3">61,60,359,358</quad4>
			<quad4 id="4">60,59,360,359</quad4>
			<quad4 id="5">59,58,361,360</quad4>
			<quad4 id="6">58,5,45,361</quad4>
			<quad4 id="7">71,357,362,72</quad4>
			<quad4 id="8">357,358,363,362</quad4>
			<quad4 id="9">358,359,364,363</quad4>
			<quad4 id="10">359,360,365,364</quad4>
			<quad4 id="11">360,361,366,365</quad4>
			<quad4 id="12">361,45,44,366</quad4>
			<quad4 id="13">72,362,367,73</quad4>
			<quad4 id="14">362,363,368,367</quad4>
			<quad4 id="15">363,364,369,368</quad4>
			<quad4 id="16">364,365,370,369</quad4>
			<quad4 id="17">365,366,371,370</quad4>
			<quad4 id="18">366,44,43,371</quad4>
			<quad4 id="19">73,367,372,74</quad4>
			<quad4 id="20">367,368,373,372</quad4>
<!-- ... 350 like lines cut -->
		</Surface>
		<Surface name="FixedDisplacement2">
			<quad4 id="1">8,206,690,180</quad4>
			<quad4 id="2">206,207,691,690</quad4>
			<quad4 id="3">207,208,692,691</quad4>
			<quad4 id="4">208,209,693,692</quad4>
			<quad4 id="5">209,210,694,693</quad4>
			<quad4 id="6">210,211,695,694</quad4>
			<quad4 id="7">211,212,696,695</quad4>
			<quad4 id="8">212,213,697,696</quad4>
			<quad4 id="9">213,214,698,697</quad4>
			<quad4 id="10">214,9,215,698</quad4>
			<quad4 id="11">180,690,699,181</quad4>
			<quad4 id="12">690,691,700,699</quad4>
			<quad4 id="13">691,692,701,700</quad4>
			<quad4 id="14">692,693,702,701</quad4>
			<quad4 id="15">693,694,703,702</quad4>
			<quad4 id="16">694,695,704,703</quad4>
			<quad4 id="17">695,696,705,704</quad4>
			<quad4 id="18">696,697,706,705</quad4>
			<quad4 id="19">697,698,707,706</quad4>
			<quad4 id="20">698,215,216,707</quad4>
<!-- ... 20 like lines cut -->
		</Surface>
		<Surface name="FixedDisplacement3">
			<quad4 id="1">10,123,489,111</quad4>
			<quad4 id="2">123,124,490,489</quad4>
			<quad4 id="3">124,125,491,490</quad4>
			<quad4 id="4">125,126,492,491</quad4>
			<quad4 id="5">126,127,493,492</quad4>
			<quad4 id="6">127,1,36,493</quad4>
			<quad4 id="7">111,489,494,112</quad4>
			<quad4 id="8">489,490,495,494</quad4>
			<quad4 id="9">490,491,496,495</quad4>
			<quad4 id="10">491,492,497,496</quad4>
			<quad4 id="11">492,493,498,497</quad4>
			<quad4 id="12">493,36,35,498</quad4>
			<quad4 id="13">112,494,499,113</quad4>
			<quad4 id="14">494,495,500,499</quad4>
			<quad4 id="15">495,496,501,500</quad4>
			<quad4 id="16">496,497,502,501</quad4>
			<quad4 id="17">497,498,503,502</quad4>
			<quad4 id="18">498,35,34,503</quad4>
			<quad4 id="19">113,499,132,20</quad4>
			<quad4 id="20">499,500,131,132</quad4>
<!-- ... 100 like lines cut -->
		</Surface>
		<Surface name="Rigid1">
			<quad4 id="1">11,33,402,80</quad4>
			<quad4 id="2">33,32,403,402</quad4>
			<quad4 id="3">32,31,404,403</quad4>
			<quad4 id="4">31,30,405,404</quad4>
			<quad4 id="5">30,29,406,405</quad4>
			<quad4 id="6">29,12,57,406</quad4>
			<quad4 id="7">80,402,407,81</quad4>
			<quad4 id="8">402,403,408,407</quad4>
			<quad4 id="9">403,404,409,408</quad4>
			<quad4 id="10">404,405,410,409</quad4>
			<quad4 id="11">405,406,411,410</quad4>
			<quad4 id="12">406,57,56,411</quad4>
			<quad4 id="13">81,407,412,82</quad4>
			<quad4 id="14">407,408,413,412</quad4>
			<quad4 id="15">408,409,414,413</quad4>
			<quad4 id="16">409,410,415,414</quad4>
			<quad4 id="17">410,411,416,415</quad4>
			<quad4 id="18">411,56,55,416</quad4>
			<quad4 id="19">82,412,417,83</quad4>
			<quad4 id="20">412,413,418,417</quad4>
<!-- ... 110 like lines cut -->
		</Surface>
	</Mesh>
	<MeshDomains>
		<SolidDomain name="Part1" mat="neohook"/>
		<SolidDomain name="Part4" mat="Material2"/>
	</MeshDomains>
	<Boundary>
		<bc name="FixedDisplacement1" type="fix" node_set="@surface:FixedDisplacement1">
			<dofs>z</dofs>
		</bc>
		<bc name="FixedDisplacement2" type="fix" node_set="@surface:FixedDisplacement2">
			<dofs>y</dofs>
		</bc>
		<bc name="FixedDisplacement3" type="fix" node_set="@surface:FixedDisplacement3">
			<dofs>x</dofs>
		</bc>
		<bc name="Rigid1" type="rigid" node_set="@surface:Rigid1">
			<rb>2</rb>
		</bc>
	</Boundary>
	<Rigid>
		<rigid_constraint name="RigidConstraint1" type="fix">
			<rb>2</rb>
			<dofs>Rx,Ru,Rv,Rw</dofs>
		</rigid_constraint>
	</Rigid>
	<Contact>
	</Contact>
	<Step>
		<step id="1" name="Step1">
			<Control>
				<analysis>STATIC</analysis>
				<time_steps>10</time_steps>
				<step_size>0.1</step_size>
				<solver>
					<max_refs>15</max_refs>
					<max_ups>10</max_ups>
					<diverge_reform>1</diverge_reform>
					<reform_each_time_step>1</reform_each_time_step>
					<dtol>0.001</dtol>
					<etol>0.01</etol>
					<rtol>0</rtol>
					<lstol>0.9</lstol>
					<min_residual>1e-20</min_residual>
					<qnmethod>BFGS</qnmethod>
					<rhoi>0</rhoi>
				</solver>
				<time_stepper>
					<dtmin>0.01</dtmin>
					<dtmax>0.1</dtmax>
					<max_retries>5</max_retries>
					<opt_iter>10</opt_iter>
				</time_stepper>
			</Control>
			<Rigid>
				<rigid_constraint name="RigidConstraint2" type="prescribe">
					<rb>2</rb>
					<dof>Rz</dof>
					<value lc="1">-5</value>
					<relative>0</relative>
				</rigid_constraint>
				<rigid_constraint name="RigidConstraint3" type="prescribe">
					<rb>2</rb>
					<dof>Ry</dof>
					<value lc="2">-20</value>
					<relative>0</relative>
				</rigid_constraint>
			</Rigid>
			<Constraints>
			</Constraints>
		</step>
	</Step>
	<LoadData>
		<load_controller id="1" type="loadcurve">
			<interpolate>SMOOTH</interpolate>
			<points>
				<point>0,0</point>
				<point>0.15,1</point>
			</points>
		</load_controller>
		<load_controller id="2" type="loadcurve">
			<interpolate>SMOOTH</interpolate>
			<points>
				<point>0.15,0</point>
				<point>1,1</point>
			</points>
		</load_controller>
	</LoadData>
	<Output>
		<plotfile type="febio">
			<var type="displacement"/>
			<var type="relative volume"/>
			<var type="stress"/>
		</plotfile>
	</Output>
</febio_spec>
