<?xml version="1.0" encoding="ISO-8859-1"?>
<febio_spec version="3.0">
	<Module type="solid"/>
	<Control>
		<analysis>STATIC</analysis>
		<time_steps>10</time_steps>
		<step_size>0.1</step_size>
		<solver>
			<max_refs>15</max_refs>
			<max_ups>10</max_ups>
			<diverge_reform>1</diverge_reform>
			<reform_each_time_step>1</reform_each_time_step>
			<dtol>0.001</dtol>
			<etol>0.01</etol>
			<rtol>0</rtol>
			<lstol>0.9</lstol>
			<min_residual>1e-20</min_residual>
			<qnmethod>BFGS</qnmethod>
			<rhoi>0</rhoi>
		</solver>
		<time_stepper>
			<dtmin>0.01</dtmin>
			<dtmax>0.1</dtmax>
			<max_retries>5</max_retries>
			<opt_iter>10</opt_iter>
		</time_stepper>
	</Control>
	<Globals>
		<Constants>
			<T>0</T>
			<R>0</R>
			<Fc>0</Fc>
		</Constants>
	</Globals>
	<Material>
		<material id="1" name="neo hook" type="neo-Hookean">
			<density>1</density>
			<E>10</E>
			<v>0.4</v>
		</material>
	</Material>
	<Mesh>
		<Nodes name="Object5">
			<node id="1">-0.5,-2.5,0</node>
			<node id="2">0.5,-2.5,0</node>
			<node id="3">0.5,2.5,0</node>
			<node id="4">-0.5,2.5,0</node>
			<node id="5">-0.5,-2.5,1</node>
			<node id="6">0.5,-2.5,1</node>
			<node id="7">0.5,2.5,1</node>
			<node id="8">-0.5,2.5,1</node>
			<node id="9">-0.3,-2.5,0</node>
			<node id="10">-0.1,-2.5,0</node>
			<node id="11">0.1,-2.5,0</node>
			<node id="12">0.3,-2.5,0</node>
			<node id="13">0.5,-2.5,0.2</node>
			<node id="14">0.5,-2.5,0.4</node>
			<node id="15">0.5,-2.5,0.6</node>
			<node id="16">0.5,-2.5,0.8</node>
			<node id="17">0.3,-2.5,1</node>
			<node id="18">0.1,-2.5,1</node>
			<node id="19">-0.1,-2.5,1</node>
			<node id="20">-0.3,-2.5,1</node>
<!-- ... 1816 like lines cut -->
		</Nodes>
		<Elements type="hex8" name="Part5">
			<elem id="1">1,9,853,187,24,237,1053,513</elem>
			<elem id="2">9,10,854,853,237,238,1054,1053</elem>
			<elem id="3">10,11,855,854,238,239,1055,1054</elem>
			<elem id="4">11,12,856,855,239,240,1056,1055</elem>
			<elem id="5">12,2,25,856,240,13,253,1056</elem>
			<elem id="6">187,853,849,186,513,1053,1057,512</elem>
			<elem id="7">853,854,850,849,1053,1054,1058,1057</elem>
			<elem id="8">854,855,851,850,1054,1055,1059,1058</elem>
			<elem id="9">855,856,852,851,1055,1056,1060,1059</elem>
			<elem id="10">856,25,26,852,1056,253,254,1060</elem>
			<elem id="11">186,849,845,185,512,1057,1061,511</elem>
			<elem id="12">849,850,846,845,1057,1058,1062,1061</elem>
			<elem id="13">850,851,847,846,1058,1059,1063,1062</elem>
			<elem id="14">851,852,848,847,1059,1060,1064,1063</elem>
			<elem id="15">852,26,27,848,1060,254,255,1064</elem>
			<elem id="16">185,845,841,184,511,1061,1065,510</elem>
			<elem id="17">845,846,842,841,1061,1062,1066,1065</elem>
			<elem id="18">846,847,843,842,1062,1063,1067,1066</elem>
			<elem id="19">847,848,844,843,1063,1064,1068,1067</elem>
			<elem id="20">848,27,28,844,1064,255,256,1068</elem>
<!-- ... 1230 like lines cut -->
		</Elements>
		<Surface name="FixedDisplacement1">
			<quad4 id="1">1,9,237,24</quad4>
			<quad4 id="2">9,10,238,237</quad4>
			<quad4 id="3">10,11,239,238</quad4>
			<quad4 id="4">11,12,240,239</quad4>
			<quad4 id="5">12,2,13,240</quad4>
			<quad4 id="6">24,237,241,23</quad4>
			<quad4 id="7">237,238,242,241</quad4>
			<quad4 id="8">238,239,243,242</quad4>
			<quad4 id="9">239,240,244,243</quad4>
			<quad4 id="10">240,13,14,244</quad4>
			<quad4 id="11">23,241,245,22</quad4>
			<quad4 id="12">241,242,246,245</quad4>
			<quad4 id="13">242,243,247,246</quad4>
			<quad4 id="14">243,244,248,247</quad4>
			<quad4 id="15">244,14,15,248</quad4>
			<quad4 id="16">22,245,249,21</quad4>
			<quad4 id="17">245,246,250,249</quad4>
			<quad4 id="18">246,247,251,250</quad4>
			<quad4 id="19">247,248,252,251</quad4>
			<quad4 id="20">248,15,16,252</quad4>
<!-- ... 5 like lines cut -->
		</Surface>
		<Surface name="PrescribedDisplacement1">
			<quad4 id="1">3,127,449,74</quad4>
			<quad4 id="2">127,128,450,449</quad4>
			<quad4 id="3">128,129,451,450</quad4>
			<quad4 id="4">129,130,452,451</quad4>
			<quad4 id="5">130,4,131,452</quad4>
			<quad4 id="6">74,449,453,75</quad4>
			<quad4 id="7">449,450,454,453</quad4>
			<quad4 id="8">450,451,455,454</quad4>
			<quad4 id="9">451,452,456,455</quad4>
			<quad4 id="10">452,131,132,456</quad4>
			<quad4 id="11">75,453,457,76</quad4>
			<quad4 id="12">453,454,458,457</quad4>
			<quad4 id="13">454,455,459,458</quad4>
			<quad4 id="14">455,456,460,459</quad4>
			<quad4 id="15">456,132,133,460</quad4>
			<quad4 id="16">76,457,461,77</quad4>
			<quad4 id="17">457,458,462,461</quad4>
			<quad4 id="18">458,459,463,462</quad4>
			<quad4 id="19">459,460,464,463</quad4>
			<quad4 id="20">460,133,134,464</quad4>
<!-- ... 5 like lines cut -->
		</Surface>
	</Mesh>
	<MeshDomains>
		<SolidDomain name="Part5" mat="neo hook"/>
	</MeshDomains>
	<Boundary>
		<bc name="FixedDisplacement1" type="fix" node_set="@surface:FixedDisplacement1">
			<dofs>x,y,z</dofs>
		</bc>
		<bc name="PrescribedDisplacement1" type="prescribe" node_set="@surface:PrescribedDisplacement1">
			<dof>y</dof>
			<scale lc="1">0.5</scale>
			<relative>0</relative>
		</bc>
	</Boundary>
	<LoadData>
		<load_controller id="1" type="loadcurve">
			<interpolate>SMOOTH</interpolate>
			<points>
				<point>0,0</point>
				<point>1,1</point>
			</points>
		</load_controller>
	</LoadData>
	<Output>
		<plotfile type="febio">
			<var type="displacement"/>
			<var type="relative volume"/>
			<var type="stress"/>
		</plotfile>
	</Output>
</febio_spec>
