<?xml version="1.0" encoding="ISO-8859-1"?>
<febio_spec version="2.5">
	<Module type="solid"/>
	<Globals>
		<Constants>
			<T>0</T>
			<R>0</R>
			<Fc>0</Fc>
		</Constants>
	</Globals>
	<Material>
		<material id="1" name="Epi" type="Ogden">
			<density>1.2e-09</density>
			<k>500</k>
			<c1>5.1798</c1>
			<c2>0</c2>
			<c3>0</c3>
			<c4>0</c4>
			<c5>0</c5>
			<c6>0</c6>
			<m1>1.6462</m1>
			<m2>1</m2>
			<m3>1</m3>
			<m4>1</m4>
			<m5>1</m5>
			<m6>1</m6>
		</material>
		<material id="2" name="Dermis" type="Ogden">
			<density>1.2e-09</density>
			<k>2</k>
			<c1>0.0207</c1>
			<c2>0</c2>
			<c3>0</c3>
			<c4>0</c4>
			<c5>0</c5>
			<c6>0</c6>
			<m1>2.7043</m1>
			<m2>1</m2>
			<m3>1</m3>
			<m4>1</m4>
			<m5>1</m5>
			<m6>1</m6>
		</material>
		<material id="3" name="hipo" type="Ogden">
			<density>1e-09</density>
			<k>1</k>
			<c1>0.0105</c1>
			<c2>0</c2>
			<c3>0</c3>
			<c4>0</c4>
			<c5>0</c5>
			<c6>0</c6>
			<m1>29.7531</m1>
			<m2>1</m2>
			<m3>1</m3>
			<m4>1</m4>
			<m5>1</m5>
			<m6>1</m6>
		</material>
		<material id="4" name="Indenter" type="rigid body">
			<density>1</density>
			<center_of_mass>0,0,0</center_of_mass>
		</material>
	</Material>
	<Geometry>
		<Nodes name="Epidermis">
			<node id="1">  1.5000000e+00, -1.5000000e+00,  0.0000000e+00</node>
			<node id="2">  1.5000000e+00, -1.5000000e+00,  7.0000000e-02</node>
			<node id="3">  7.5000000e-01, -7.5000000e-01,  0.0000000e+00</node>
			<node id="4">  7.5000000e-01, -7.5000000e-01,  7.0000000e-02</node>
			<node id="5"> -4.4408921e-16, -7.5000000e-01,  0.0000000e+00</node>
			<node id="6">  2.2727273e-02, -7.5000000e-01,  0.0000000e+00</node>
			<node id="7">  4.5454545e-02, -7.5000000e-01,  0.0000000e+00</node>
			<node id="8">  6.8181818e-02, -7.5000000e-01,  0.0000000e+00</node>
			<node id="9">  9.0909091e-02, -7.5000000e-01,  0.0000000e+00</node>
			<node id="10">  1.1363636e-01, -7.5000000e-01,  0.0000000e+00</node>
			<node id="11">  1.3636364e-01, -7.5000000e-01,  0.0000000e+00</node>
			<node id="12">  1.5909091e-01, -7.5000000e-01,  0.0000000e+00</node>
			<node id="13">  1.8181818e-01, -7.5000000e-01,  0.0000000e+00</node>
			<node id="14">  2.0454545e-01, -7.5000000e-01,  0.0000000e+00</node>
			<node id="15">  2.2727273e-01, -7.5000000e-01,  0.0000000e+00</node>
			<node id="16">  2.5000000e-01, -7.5000000e-01,  0.0000000e+00</node>
			<node id="17">  2.7272727e-01, -7.5000000e-01,  0.0000000e+00</node>
			<node id="18">  2.9545455e-01, -7.5000000e-01,  0.0000000e+00</node>
			<node id="19">  3.1818182e-01, -7.5000000e-01,  0.0000000e+00</node>
			<node id="20">  3.4090909e-01, -7.5000000e-01,  0.0000000e+00</node>
<!-- ... 5408 like lines cut -->
		</Nodes>
		<Nodes name="Dermis">
			<node id="5429">  1.5000000e+00, -1.5000000e+00, -8.4000000e-01</node>
			<node id="5430">  7.5000000e-01, -7.5000000e-01, -4.2000000e-01</node>
			<node id="5431">  2.2204460e-16, -7.5000000e-01, -4.2000000e-01</node>
			<node id="5432">  4.1666667e-02, -7.5000000e-01, -4.2000000e-01</node>
			<node id="5433">  8.3333333e-02, -7.5000000e-01, -4.2000000e-01</node>
			<node id="5434">  1.2500000e-01, -7.5000000e-01, -4.2000000e-01</node>
			<node id="5435">  1.6666667e-01, -7.5000000e-01, -4.2000000e-01</node>
			<node id="5436">  2.0833333e-01, -7.5000000e-01, -4.2000000e-01</node>
			<node id="5437">  2.5000000e-01, -7.5000000e-01, -4.2000000e-01</node>
			<node id="5438">  2.9166667e-01, -7.5000000e-01, -4.2000000e-01</node>
			<node id="5439">  3.3333333e-01, -7.5000000e-01, -4.2000000e-01</node>
			<node id="5440">  3.7500000e-01, -7.5000000e-01, -4.2000000e-01</node>
			<node id="5441">  4.1666667e-01, -7.5000000e-01, -4.2000000e-01</node>
			<node id="5442">  4.5833333e-01, -7.5000000e-01, -4.2000000e-01</node>
			<node id="5443">  5.0000000e-01, -7.5000000e-01, -4.2000000e-01</node>
			<node id="5444">  5.4166667e-01, -7.5000000e-01, -4.2000000e-01</node>
			<node id="5445">  5.8333333e-01, -7.5000000e-01, -4.2000000e-01</node>
			<node id="5446">  6.2500000e-01, -7.5000000e-01, -4.2000000e-01</node>
			<node id="5447">  6.6666667e-01, -7.5000000e-01, -4.2000000e-01</node>
			<node id="5448">  7.0833333e-01, -7.5000000e-01, -4.2000000e-01</node>
<!-- ... 5200 like lines cut -->
		</Nodes>
		<Nodes name="Hipo">
			<node id="10649"> -3.0531133e-16, -1.5000000e+00, -2.8400000e+00</node>
			<node id="10650"> -3.0531133e-16, -1.5000000e+00, -2.4400000e+00</node>
			<node id="10651"> -3.0531133e-16, -1.5000000e+00, -2.0400000e+00</node>
			<node id="10652"> -3.0531133e-16, -1.5000000e+00, -1.6400000e+00</node>
			<node id="10653"> -3.0531133e-16, -1.5000000e+00, -1.2400000e+00</node>
			<node id="10654"> -3.0531133e-16, -1.5000000e+00, -8.4000000e-01</node>
			<node id="10655"> -3.0531133e-16, -1.4166667e+00, -2.8400000e+00</node>
			<node id="10656"> -3.0531133e-16, -1.4166667e+00, -2.4400000e+00</node>
			<node id="10657"> -3.0531133e-16, -1.4166667e+00, -2.0400000e+00</node>
			<node id="10658"> -3.0531133e-16, -1.4166667e+00, -1.6400000e+00</node>
			<node id="10659"> -3.0531133e-16, -1.4166667e+00, -1.2400000e+00</node>
			<node id="10660"> -3.0531133e-16, -1.4166667e+00, -8.4000000e-01</node>
			<node id="10661"> -3.0531133e-16, -1.3333333e+00, -2.8400000e+00</node>
			<node id="10662"> -3.0531133e-16, -1.3333333e+00, -2.4400000e+00</node>
			<node id="10663"> -3.0531133e-16, -1.3333333e+00, -2.0400000e+00</node>
			<node id="10664"> -3.0531133e-16, -1.3333333e+00, -1.6400000e+00</node>
			<node id="10665"> -3.0531133e-16, -1.3333333e+00, -1.2400000e+00</node>
			<node id="10666"> -3.0531133e-16, -1.3333333e+00, -8.4000000e-01</node>
			<node id="10667"> -3.0531133e-16, -1.2500000e+00, -2.8400000e+00</node>
			<node id="10668"> -3.0531133e-16, -1.2500000e+00, -2.4400000e+00</node>
<!-- ... 2146 like lines cut -->
		</Nodes>
		<Nodes name="Cylinder02">
			<node id="12815">  0.0000000e+00, -4.4194174e-02,  7.0100000e-02</node>
			<node id="12816">  4.4194174e-02, -4.4194174e-02,  7.0100000e-02</node>
			<node id="12817">  0.0000000e+00,  0.0000000e+00,  7.0100000e-02</node>
			<node id="12818">  4.4194174e-02,  0.0000000e+00,  7.0100000e-02</node>
			<node id="12819">  0.0000000e+00, -4.4194174e-02,  1.7010000e-01</node>
			<node id="12820">  4.4194174e-02, -4.4194174e-02,  1.7010000e-01</node>
			<node id="12821">  0.0000000e+00,  0.0000000e+00,  1.7010000e-01</node>
			<node id="12822">  4.4194174e-02,  0.0000000e+00,  1.7010000e-01</node>
			<node id="12823">  0.0000000e+00, -2.5000000e-01,  7.0100000e-02</node>
			<node id="12824">  1.7677670e-01, -1.7677669e-01,  7.0100000e-02</node>
			<node id="12825">  2.5000000e-01,  0.0000000e+00,  7.0100000e-02</node>
			<node id="12826">  0.0000000e+00, -2.5000000e-01,  1.7010000e-01</node>
			<node id="12827">  1.7677670e-01, -1.7677669e-01,  1.7010000e-01</node>
			<node id="12828">  2.5000000e-01,  0.0000000e+00,  1.7010000e-01</node>
			<node id="12829">  0.0000000e+00, -4.1247896e-02,  7.0100000e-02</node>
			<node id="12830">  0.0000000e+00, -3.8301617e-02,  7.0100000e-02</node>
			<node id="12831">  0.0000000e+00, -3.5355339e-02,  7.0100000e-02</node>
			<node id="12832">  0.0000000e+00, -3.2409061e-02,  7.0100000e-02</node>
			<node id="12833">  0.0000000e+00, -2.9462783e-02,  7.0100000e-02</node>
			<node id="12834">  0.0000000e+00, -2.6516504e-02,  7.0100000e-02</node>
<!-- ... 864 like lines cut -->
		</Nodes>
		<Elements type="hex8" mat="1" name="Part1">
			<elem id="1">     5,     6,  1466,  1465,   277,   278,  2988,  2987</elem>
			<elem id="2">     6,     7,  1467,  1466,   278,   279,  2989,  2988</elem>
			<elem id="3">     7,     8,  1468,  1467,   279,   280,  2990,  2989</elem>
			<elem id="4">     8,     9,  1469,  1468,   280,   281,  2991,  2990</elem>
			<elem id="5">     9,    10,  1470,  1469,   281,   282,  2992,  2991</elem>
			<elem id="6">    10,    11,  1471,  1470,   282,   283,  2993,  2992</elem>
			<elem id="7">    11,    12,  1472,  1471,   283,   284,  2994,  2993</elem>
			<elem id="8">    12,    13,  1473,  1472,   284,   285,  2995,  2994</elem>
			<elem id="9">    13,    14,  1474,  1473,   285,   286,  2996,  2995</elem>
			<elem id="10">    14,    15,  1475,  1474,   286,   287,  2997,  2996</elem>
			<elem id="11">    15,    16,  1476,  1475,   287,   288,  2998,  2997</elem>
			<elem id="12">    16,    17,  1477,  1476,   288,   289,  2999,  2998</elem>
			<elem id="13">    17,    18,  1478,  1477,   289,   290,  3000,  2999</elem>
			<elem id="14">    18,    19,  1479,  1478,   290,   291,  3001,  3000</elem>
			<elem id="15">    19,    20,  1480,  1479,   291,   292,  3002,  3001</elem>
			<elem id="16">    20,    21,  1481,  1480,   292,   293,  3003,  3002</elem>
			<elem id="17">    21,    22,  1482,  1481,   293,   294,  3004,  3003</elem>
			<elem id="18">    22,    23,  1483,  1482,   294,   295,  3005,  3004</elem>
			<elem id="19">    23,    24,  1484,  1483,   295,   296,  3006,  3005</elem>
			<elem id="20">    24,    25,  1485,  1484,   296,   297,  3007,  3006</elem>
<!-- ... 3841 like lines cut -->
		</Elements>
		<Elements type="hex8" mat="2" name="Part3">
			<elem id="3862">  5431,  5432,  6116,  6115,  5521,  5522,  6834,  6833</elem>
			<elem id="3863">  5432,  5433,  6117,  6116,  5522,  5523,  6835,  6834</elem>
			<elem id="3864">  5433,  5434,  6118,  6117,  5523,  5524,  6836,  6835</elem>
			<elem id="3865">  5434,  5435,  6119,  6118,  5524,  5525,  6837,  6836</elem>
			<elem id="3866">  5435,  5436,  6120,  6119,  5525,  5526,  6838,  6837</elem>
			<elem id="3867">  5436,  5437,  6121,  6120,  5526,  5527,  6839,  6838</elem>
			<elem id="3868">  5437,  5438,  6122,  6121,  5527,  5528,  6840,  6839</elem>
			<elem id="3869">  5438,  5439,  6123,  6122,  5528,  5529,  6841,  6840</elem>
			<elem id="3870">  5439,  5440,  6124,  6123,  5529,  5530,  6842,  6841</elem>
			<elem id="3871">  5440,  5441,  6125,  6124,  5530,  5531,  6843,  6842</elem>
			<elem id="3872">  5441,  5442,  6126,  6125,  5531,  5532,  6844,  6843</elem>
			<elem id="3873">  5442,  5443,  6127,  6126,  5532,  5533,  6845,  6844</elem>
			<elem id="3874">  5443,  5444,  6128,  6127,  5533,  5534,  6846,  6845</elem>
			<elem id="3875">  5444,  5445,  6129,  6128,  5534,  5535,  6847,  6846</elem>
			<elem id="3876">  5445,  5446,  6130,  6129,  5535,  5536,  6848,  6847</elem>
			<elem id="3877">  5446,  5447,  6131,  6130,  5536,  5537,  6849,  6848</elem>
			<elem id="3878">  5447,  5448,  6132,  6131,  5537,  5538,  6850,  6849</elem>
			<elem id="3879">  5448,  5430,  5457,  6132,  5538,  5449,  5665,  6850</elem>
			<elem id="3880">  6115,  6116,  6098,  6097,  6833,  6834,  6852,  6851</elem>
			<elem id="3881">  6116,  6117,  6099,  6098,  6834,  6835,  6853,  6852</elem>
<!-- ... 4408 like lines cut -->
		</Elements>
		<Elements type="hex8" mat="3" name="Part4">
			<elem id="8290"> 10649, 10763, 10769, 10655, 10650, 10764, 10770, 10656</elem>
			<elem id="8291"> 10650, 10764, 10770, 10656, 10651, 10765, 10771, 10657</elem>
			<elem id="8292"> 10651, 10765, 10771, 10657, 10652, 10766, 10772, 10658</elem>
			<elem id="8293"> 10652, 10766, 10772, 10658, 10653, 10767, 10773, 10659</elem>
			<elem id="8294"> 10653, 10767, 10773, 10659, 10654, 10768, 10774, 10660</elem>
			<elem id="8295"> 10655, 10769, 10775, 10661, 10656, 10770, 10776, 10662</elem>
			<elem id="8296"> 10656, 10770, 10776, 10662, 10657, 10771, 10777, 10663</elem>
			<elem id="8297"> 10657, 10771, 10777, 10663, 10658, 10772, 10778, 10664</elem>
			<elem id="8298"> 10658, 10772, 10778, 10664, 10659, 10773, 10779, 10665</elem>
			<elem id="8299"> 10659, 10773, 10779, 10665, 10660, 10774, 10780, 10666</elem>
			<elem id="8300"> 10661, 10775, 10781, 10667, 10662, 10776, 10782, 10668</elem>
			<elem id="8301"> 10662, 10776, 10782, 10668, 10663, 10777, 10783, 10669</elem>
			<elem id="8302"> 10663, 10777, 10783, 10669, 10664, 10778, 10784, 10670</elem>
			<elem id="8303"> 10664, 10778, 10784, 10670, 10665, 10779, 10785, 10671</elem>
			<elem id="8304"> 10665, 10779, 10785, 10671, 10666, 10780, 10786, 10672</elem>
			<elem id="8305"> 10667, 10781, 10787, 10673, 10668, 10782, 10788, 10674</elem>
			<elem id="8306"> 10668, 10782, 10788, 10674, 10669, 10783, 10789, 10675</elem>
			<elem id="8307"> 10669, 10783, 10789, 10675, 10670, 10784, 10790, 10676</elem>
			<elem id="8308"> 10670, 10784, 10790, 10676, 10671, 10785, 10791, 10677</elem>
			<elem id="8309"> 10671, 10785, 10791, 10677, 10672, 10786, 10792, 10678</elem>
<!-- ... 1600 like lines cut -->
		</Elements>
		<Elements type="hex8" mat="4" name="Part7">
			<elem id="9910"> 12815, 12857, 13209, 12829, 12819, 12884, 13223, 12856</elem>
			<elem id="9911"> 12857, 12858, 13210, 13209, 12884, 12883, 13224, 13223</elem>
			<elem id="9912"> 12858, 12859, 13211, 13210, 12883, 12882, 13225, 13224</elem>
			<elem id="9913"> 12859, 12860, 13212, 13211, 12882, 12881, 13226, 13225</elem>
			<elem id="9914"> 12860, 12861, 13213, 13212, 12881, 12880, 13227, 13226</elem>
			<elem id="9915"> 12861, 12862, 13214, 13213, 12880, 12879, 13228, 13227</elem>
			<elem id="9916"> 12862, 12863, 13215, 13214, 12879, 12878, 13229, 13228</elem>
			<elem id="9917"> 12863, 12864, 13216, 13215, 12878, 12877, 13230, 13229</elem>
			<elem id="9918"> 12864, 12865, 13217, 13216, 12877, 12876, 13231, 13230</elem>
			<elem id="9919"> 12865, 12866, 13218, 13217, 12876, 12875, 13232, 13231</elem>
			<elem id="9920"> 12866, 12867, 13219, 13218, 12875, 12874, 13233, 13232</elem>
			<elem id="9921"> 12867, 12868, 13220, 13219, 12874, 12873, 13234, 13233</elem>
			<elem id="9922"> 12868, 12869, 13221, 13220, 12873, 12872, 13235, 13234</elem>
			<elem id="9923"> 12869, 12870, 13222, 13221, 12872, 12871, 13236, 13235</elem>
			<elem id="9924"> 12870, 12816, 12885, 13222, 12871, 12820, 12912, 13236</elem>
			<elem id="9925"> 12829, 13209, 13195, 12830, 12856, 13223, 13237, 12855</elem>
			<elem id="9926"> 13209, 13210, 13196, 13195, 13223, 13224, 13238, 13237</elem>
			<elem id="9927"> 13210, 13211, 13197, 13196, 13224, 13225, 13239, 13238</elem>
			<elem id="9928"> 13211, 13212, 13198, 13197, 13225, 13226, 13240, 13239</elem>
			<elem id="9929"> 13212, 13213, 13199, 13198, 13226, 13227, 13241, 13240</elem>
<!-- ... 385 like lines cut -->
		</Elements>
		<NodeSet name="SymmetryY">
			<node id="105"/>
			<node id="106"/>
			<node id="243"/>
			<node id="244"/>
			<node id="375"/>
			<node id="408"/>
			<node id="409"/>
			<node id="410"/>
			<node id="411"/>
			<node id="412"/>
			<node id="413"/>
			<node id="414"/>
			<node id="415"/>
			<node id="416"/>
			<node id="417"/>
			<node id="418"/>
			<node id="419"/>
			<node id="420"/>
			<node id="421"/>
			<node id="422"/>
<!-- ... 494 like lines cut -->
		</NodeSet>
		<NodeSet name="SymmetryX">
			<node id="5"/>
			<node id="72"/>
			<node id="139"/>
			<node id="206"/>
			<node id="277"/>
			<node id="310"/>
			<node id="409"/>
			<node id="442"/>
			<node id="475"/>
			<node id="508"/>
			<node id="541"/>
			<node id="574"/>
			<node id="607"/>
			<node id="640"/>
			<node id="673"/>
			<node id="706"/>
			<node id="739"/>
			<node id="772"/>
			<node id="805"/>
			<node id="838"/>
<!-- ... 494 like lines cut -->
		</NodeSet>
		<NodeSet name="Fixed">
			<node id="10649"/>
			<node id="10655"/>
			<node id="10661"/>
			<node id="10667"/>
			<node id="10673"/>
			<node id="10679"/>
			<node id="10685"/>
			<node id="10691"/>
			<node id="10697"/>
			<node id="10703"/>
			<node id="10709"/>
			<node id="10715"/>
			<node id="10721"/>
			<node id="10727"/>
			<node id="10733"/>
			<node id="10739"/>
			<node id="10745"/>
			<node id="10751"/>
			<node id="10757"/>
			<node id="10763"/>
<!-- ... 341 like lines cut -->
		</NodeSet>
		<Surface name="Tied01_master">
			<quad4 id="1">  1465,  1466,     6,     5</quad4>
			<quad4 id="2">  1466,  1467,     7,     6</quad4>
			<quad4 id="3">  1467,  1468,     8,     7</quad4>
			<quad4 id="4">  1468,  1469,     9,     8</quad4>
			<quad4 id="5">  1469,  1470,    10,     9</quad4>
			<quad4 id="6">  1470,  1471,    11,    10</quad4>
			<quad4 id="7">  1471,  1472,    12,    11</quad4>
			<quad4 id="8">  1472,  1473,    13,    12</quad4>
			<quad4 id="9">  1473,  1474,    14,    13</quad4>
			<quad4 id="10">  1474,  1475,    15,    14</quad4>
			<quad4 id="11">  1475,  1476,    16,    15</quad4>
			<quad4 id="12">  1476,  1477,    17,    16</quad4>
			<quad4 id="13">  1477,  1478,    18,    17</quad4>
			<quad4 id="14">  1478,  1479,    19,    18</quad4>
			<quad4 id="15">  1479,  1480,    20,    19</quad4>
			<quad4 id="16">  1480,  1481,    21,    20</quad4>
			<quad4 id="17">  1481,  1482,    22,    21</quad4>
			<quad4 id="18">  1482,  1483,    23,    22</quad4>
			<quad4 id="19">  1483,  1484,    24,    23</quad4>
			<quad4 id="20">  1484,  1485,    25,    24</quad4>
<!-- ... 1267 like lines cut -->
		</Surface>
		<Surface name="Tied01_slave">
			<quad4 id="1">  5647,  5648,  9102,  9101</quad4>
			<quad4 id="2">  5648,  5649,  9103,  9102</quad4>
			<quad4 id="3">  5649,  5650,  9104,  9103</quad4>
			<quad4 id="4">  5650,  5651,  9105,  9104</quad4>
			<quad4 id="5">  5651,  5652,  9106,  9105</quad4>
			<quad4 id="6">  5652,  5653,  9107,  9106</quad4>
			<quad4 id="7">  5653,  5654,  9108,  9107</quad4>
			<quad4 id="8">  5654,  5655,  9109,  9108</quad4>
			<quad4 id="9">  5655,  5656,  9110,  9109</quad4>
			<quad4 id="10">  5656,  5657,  9111,  9110</quad4>
			<quad4 id="11">  5657,  5658,  9112,  9111</quad4>
			<quad4 id="12">  5658,  5659,  9113,  9112</quad4>
			<quad4 id="13">  5659,  5660,  9114,  9113</quad4>
			<quad4 id="14">  5660,  5661,  9115,  9114</quad4>
			<quad4 id="15">  5661,  5662,  9116,  9115</quad4>
			<quad4 id="16">  5662,  5663,  9117,  9116</quad4>
			<quad4 id="17">  5663,  5664,  9118,  9117</quad4>
			<quad4 id="18">  5664,  5456,  5791,  9118</quad4>
			<quad4 id="19">  9101,  9102,  9120,  9119</quad4>
			<quad4 id="20">  9102,  9103,  9121,  9120</quad4>
<!-- ... 412 like lines cut -->
		</Surface>
		<Surface name="Tied02_master">
			<quad4 id="1">  6509,  6510,  6528,  6527</quad4>
			<quad4 id="2">  6510,  6511,  6529,  6528</quad4>
			<quad4 id="3">  6511,  6512,  6530,  6529</quad4>
			<quad4 id="4">  6512,  6513,  6531,  6530</quad4>
			<quad4 id="5">  6513,  6514,  6532,  6531</quad4>
			<quad4 id="6">  6514,  6515,  6533,  6532</quad4>
			<quad4 id="7">  6515,  6516,  6534,  6533</quad4>
			<quad4 id="8">  6516,  6517,  6535,  6534</quad4>
			<quad4 id="9">  6517,  6518,  6536,  6535</quad4>
			<quad4 id="10">  6518,  6519,  6537,  6536</quad4>
			<quad4 id="11">  6519,  6520,  6538,  6537</quad4>
			<quad4 id="12">  6520,  6521,  6539,  6538</quad4>
			<quad4 id="13">  6521,  6522,  6540,  6539</quad4>
			<quad4 id="14">  6522,  6523,  6541,  6540</quad4>
			<quad4 id="15">  6523,  6524,  6542,  6541</quad4>
			<quad4 id="16">  6524,  6525,  6543,  6542</quad4>
			<quad4 id="17">  6525,  6526,  6544,  6543</quad4>
			<quad4 id="18">  6526,  5520,  5519,  6544</quad4>
			<quad4 id="19">  6527,  6528,  6546,  6545</quad4>
			<quad4 id="20">  6528,  6529,  6547,  6546</quad4>
<!-- ... 304 like lines cut -->
		</Surface>
		<Surface name="Tied02_slave">
			<quad4 id="1"> 10654, 10768, 10774, 10660</quad4>
			<quad4 id="2"> 10660, 10774, 10780, 10666</quad4>
			<quad4 id="3"> 10666, 10780, 10786, 10672</quad4>
			<quad4 id="4"> 10672, 10786, 10792, 10678</quad4>
			<quad4 id="5"> 10678, 10792, 10798, 10684</quad4>
			<quad4 id="6"> 10684, 10798, 10804, 10690</quad4>
			<quad4 id="7"> 10690, 10804, 10810, 10696</quad4>
			<quad4 id="8"> 10696, 10810, 10816, 10702</quad4>
			<quad4 id="9"> 10702, 10816, 10822, 10708</quad4>
			<quad4 id="10"> 10708, 10822, 10828, 10714</quad4>
			<quad4 id="11"> 10714, 10828, 10834, 10720</quad4>
			<quad4 id="12"> 10720, 10834, 10840, 10726</quad4>
			<quad4 id="13"> 10726, 10840, 10846, 10732</quad4>
			<quad4 id="14"> 10732, 10846, 10852, 10738</quad4>
			<quad4 id="15"> 10738, 10852, 10858, 10744</quad4>
			<quad4 id="16"> 10744, 10858, 10864, 10750</quad4>
			<quad4 id="17"> 10750, 10864, 10870, 10756</quad4>
			<quad4 id="18"> 10756, 10870, 10876, 10762</quad4>
			<quad4 id="19"> 10768, 10882, 10888, 10774</quad4>
			<quad4 id="20"> 10774, 10888, 10894, 10780</quad4>
<!-- ... 304 like lines cut -->
		</Surface>
		<Surface name="Sliding01_master">
			<quad4 id="1"> 12829, 13209, 12857, 12815</quad4>
			<quad4 id="2"> 13209, 13210, 12858, 12857</quad4>
			<quad4 id="3"> 13210, 13211, 12859, 12858</quad4>
			<quad4 id="4"> 13211, 13212, 12860, 12859</quad4>
			<quad4 id="5"> 13212, 13213, 12861, 12860</quad4>
			<quad4 id="6"> 13213, 13214, 12862, 12861</quad4>
			<quad4 id="7"> 13214, 13215, 12863, 12862</quad4>
			<quad4 id="8"> 13215, 13216, 12864, 12863</quad4>
			<quad4 id="9"> 13216, 13217, 12865, 12864</quad4>
			<quad4 id="10"> 13217, 13218, 12866, 12865</quad4>
			<quad4 id="11"> 13218, 13219, 12867, 12866</quad4>
			<quad4 id="12"> 13219, 13220, 12868, 12867</quad4>
			<quad4 id="13"> 13220, 13221, 12869, 12868</quad4>
			<quad4 id="14"> 13221, 13222, 12870, 12869</quad4>
			<quad4 id="15"> 13222, 12885, 12816, 12870</quad4>
			<quad4 id="16"> 12830, 13195, 13209, 12829</quad4>
			<quad4 id="17"> 13195, 13196, 13210, 13209</quad4>
			<quad4 id="18"> 13196, 13197, 13211, 13210</quad4>
			<quad4 id="19"> 13197, 13198, 13212, 13211</quad4>
			<quad4 id="20"> 13198, 13199, 13213, 13212</quad4>
<!-- ... 385 like lines cut -->
		</Surface>
		<Surface name="Sliding01_slave">
			<quad4 id="1">    72,    71,  1499,  1498</quad4>
			<quad4 id="2">    71,    70,  1500,  1499</quad4>
			<quad4 id="3">    70,    69,  1501,  1500</quad4>
			<quad4 id="4">    69,    68,  1502,  1501</quad4>
			<quad4 id="5">    68,    67,  1503,  1502</quad4>
			<quad4 id="6">    67,    66,  1504,  1503</quad4>
			<quad4 id="7">    66,    65,  1505,  1504</quad4>
			<quad4 id="8">    65,    64,  1506,  1505</quad4>
			<quad4 id="9">    64,    63,  1507,  1506</quad4>
			<quad4 id="10">    63,    62,  1508,  1507</quad4>
			<quad4 id="11">    62,    61,  1509,  1508</quad4>
			<quad4 id="12">    61,    60,  1510,  1509</quad4>
			<quad4 id="13">    60,    59,  1511,  1510</quad4>
			<quad4 id="14">    59,    58,  1512,  1511</quad4>
			<quad4 id="15">    58,    57,  1513,  1512</quad4>
			<quad4 id="16">    57,    56,  1514,  1513</quad4>
			<quad4 id="17">    56,    55,  1515,  1514</quad4>
			<quad4 id="18">    55,    54,  1516,  1515</quad4>
			<quad4 id="19">    54,    53,  1517,  1516</quad4>
			<quad4 id="20">    53,    52,  1518,  1517</quad4>
<!-- ... 1267 like lines cut -->
		</Surface>
		<SurfacePair name="Tied01">
			<master surface="Tied01_master"/>
			<slave surface="Tied01_slave"/>
		</SurfacePair>
		<SurfacePair name="Tied02">
			<master surface="Tied02_master"/>
			<slave surface="Tied02_slave"/>
		</SurfacePair>
		<SurfacePair name="Sliding01">
			<master surface="Sliding01_master"/>
			<slave surface="Sliding01_slave"/>
		</SurfacePair>
	</Geometry>
	<Boundary>
		<fix bc="y" node_set="SymmetryY"/>
		<fix bc="x" node_set="SymmetryX"/>
		<fix bc="x,y,z" node_set="Fixed"/>
	</Boundary>
	<Contact>
		<contact type="tied-node-on-facet" name="Tied01" surface_pair="Tied01">
			<laugon>0</laugon>
			<tolerance>0.2</tolerance>
			<penalty>1</penalty>
			<minaug>0</minaug>
			<maxaug>10</maxaug>
		</contact>
		<contact type="tied-node-on-facet" name="Tied02" surface_pair="Tied02">
			<laugon>0</laugon>
			<tolerance>0.2</tolerance>
			<penalty>1</penalty>
			<minaug>0</minaug>
			<maxaug>10</maxaug>
		</contact>
		<contact type="sliding_with_gaps" name="Sliding01" surface_pair="Sliding01">
			<laugon>0</laugon>
			<tolerance>0.2</tolerance>
			<penalty>1</penalty>
			<two_pass>1</two_pass>
			<auto_penalty>0</auto_penalty>
			<fric_coeff>1.2</fric_coeff>
			<fric_penalty>0</fric_penalty>
			<search_tol>0.01</search_tol>
			<minaug>0</minaug>
			<maxaug>10</maxaug>
			<gaptol>0</gaptol>
			<seg_up>0</seg_up>
		</contact>
	</Contact>
	<LoadData>
		<loadcurve id="1" type="smooth">
			<point>0,0</point>
			<point>1,1</point>
		</loadcurve>
		<loadcurve id="2" type="smooth">
			<point>0,0</point>
			<point>1,1</point>
		</loadcurve>
		<loadcurve id="3" type="smooth">
			<point>0,0</point>
			<point>1,1</point>
		</loadcurve>
		<loadcurve id="4" type="smooth">
			<point>0,0</point>
			<point>1,1</point>
		</loadcurve>
		<loadcurve id="5" type="smooth">
			<point>0,0</point>
			<point>1,1</point>
		</loadcurve>
		<loadcurve id="6" type="smooth">
			<point>0,0</point>
			<point>1,1</point>
		</loadcurve>
	</LoadData>
	<Output>
		<plotfile type="febio">
			<var type="acceleration"/>
			<var type="contact gap"/>
			<var type="contact pressure"/>
			<var type="contact traction"/>
			<var type="displacement"/>
			<var type="relative volume"/>
			<var type="stress"/>
			<var type="velocity"/>
		</plotfile>
	</Output>
	<Step name="Step01">
		<Control>
			<time_steps>100</time_steps>
			<step_size>0.01</step_size>
			<max_refs>15</max_refs>
			<max_ups>10</max_ups>
			<diverge_reform>1</diverge_reform>
			<reform_each_time_step>1</reform_each_time_step>
			<dtol>0.001</dtol>
			<etol>0.01</etol>
			<rtol>0</rtol>
			<lstol>0.9</lstol>
			<min_residual>1e-20</min_residual>
			<qnmethod>0</qnmethod>
			<time_stepper>
				<dtmin>0.01</dtmin>
				<dtmax>0.1</dtmax>
				<max_retries>5</max_retries>
				<opt_iter>10</opt_iter>
			</time_stepper>
			<analysis type="dynamic"/>
			<alpha>1</alpha>
			<beta>0.25</beta>
			<gamma>0.5</gamma>
		</Control>
		<Boundary>
			<rigid_body mat="4">
				<prescribed bc="x" lc="1">0</prescribed>
			</rigid_body>
			<rigid_body mat="4">
				<prescribed bc="y" lc="2">0</prescribed>
			</rigid_body>
			<rigid_body mat="4">
				<prescribed bc="z" lc="3">-0.3</prescribed>
			</rigid_body>
			<rigid_body mat="4">
				<prescribed bc="Rx" lc="4">0</prescribed>
			</rigid_body>
			<rigid_body mat="4">
				<prescribed bc="Ry" lc="5">0</prescribed>
			</rigid_body>
			<rigid_body mat="4">
				<prescribed bc="Rz" lc="6">0</prescribed>
			</rigid_body>
		</Boundary>
		<Constraints>
		</Constraints>
	</Step>
</febio_spec>
