<?xml version="1.0" encoding="ISO-8859-1"?>
<febio_spec version="2.5">
	<Module type="solid"/>
	<Globals>
		<Constants>
			<T>0</T>
			<R>0</R>
			<Fc>0</Fc>
		</Constants>
	</Globals>
	<Material>
		<material id="1" name="Material1" type="Mooney-Rivlin">
			<density>1</density>
			<c1>0.00507</c1>
			<c2>0</c2>
			<k>0.507</k>
		</material>
	</Material>
	<Geometry>
		<Nodes name="MergedObject3">
			<node id="1"> -1.0151162e+00,  7.3076648e-01,  0.0000000e+00</node>
			<node id="2"> -9.9819684e-01,  6.3144207e-01,  0.0000000e+00</node>
			<node id="3"> -4.1511619e-01,  7.3076648e-01,  0.0000000e+00</node>
			<node id="4"> -4.1511619e-01,  7.3076648e-01, -4.8391917e-01</node>
			<node id="5"> -1.0151162e+00,  7.3076648e-01, -4.8391917e-01</node>
			<node id="6"> -6.0968763e-01,  1.0116309e+00,  0.0000000e+00</node>
			<node id="7">  1.0151162e+00,  7.3076648e-01,  0.0000000e+00</node>
			<node id="8">  6.0968763e-01,  1.0116309e+00,  0.0000000e+00</node>
			<node id="9">  4.1511619e-01,  7.3076648e-01,  0.0000000e+00</node>
			<node id="10">  4.1511619e-01,  7.3076648e-01, -4.8391917e-01</node>
			<node id="11">  1.0151162e+00,  7.3076648e-01, -4.8391917e-01</node>
			<node id="12">  9.9819684e-01,  6.3144207e-01,  0.0000000e+00</node>
			<node id="13">  1.0151162e+00, -7.3076648e-01,  0.0000000e+00</node>
			<node id="14">  9.9819684e-01, -6.3144207e-01,  0.0000000e+00</node>
			<node id="15">  4.1511619e-01, -7.3076648e-01,  0.0000000e+00</node>
			<node id="16">  4.1511619e-01, -7.3076648e-01, -4.8391917e-01</node>
			<node id="17">  1.0151162e+00, -7.3076648e-01, -4.8391917e-01</node>
			<node id="18">  6.0968763e-01, -1.0116309e+00,  0.0000000e+00</node>
			<node id="19">  3.8274994e-01,  1.1174160e+00,  0.0000000e+00</node>
			<node id="20">  1.2263309e-01,  9.1004008e-01,  0.0000000e+00</node>
<!-- ... 28594 like lines cut -->
		</Nodes>
		<Elements type="tet10" mat="1" name="Part1">
			<elem id="1">  1878,  1879,  1880,  1881,  3763,  3762,  3761,  3765,  3764,  3766</elem>
			<elem id="2">  1878,  1882,  1883,  1884,  3769,  3768,  3767,  3771,  3770,  3772</elem>
			<elem id="3">  1878,  1885,  1882,  1884,  3774,  3773,  3769,  3771,  3775,  3770</elem>
			<elem id="4">  1878,  1882,  1885,  1886,  3769,  3773,  3774,  3777,  3776,  3778</elem>
			<elem id="5">  1878,  1883,  1887,  1881,  3767,  3780,  3779,  3765,  3781,  3782</elem>
			<elem id="6">  1888,  1889,  1890,  1891,  3785,  3784,  3783,  3787,  3786,  3788</elem>
			<elem id="7">  1892,  1893,  1894,  1895,  3791,  3790,  3789,  3793,  3792,  3794</elem>
			<elem id="8">  1896,  1897,  1898,  1899,  3797,  3796,  3795,  3799,  3798,  3800</elem>
			<elem id="9">  1896,  1900,  1897,  1899,  3802,  3801,  3797,  3799,  3803,  3798</elem>
			<elem id="10">  1896,  1897,  1901,  1902,  3797,  3805,  3804,  3807,  3806,  3808</elem>
			<elem id="11">  1903,  1904,  1905,  1906,  3811,  3810,  3809,  3813,  3812,  3814</elem>
			<elem id="12">  1903,  1904,  1907,  1905,  3811,  3816,  3815,  3809,  3810,  3817</elem>
			<elem id="13">  1903,  1904,  1906,  1908,  3811,  3812,  3813,  3819,  3818,  3820</elem>
			<elem id="14">  1903,  1907,  1909,  1910,  3815,  3822,  3821,  3824,  3823,  3825</elem>
			<elem id="15">  1911,   851,   815,   848,  3828,  3827,  3826,  3830,  3829,  3831</elem>
			<elem id="16">  1912,  1910,  1913,  1903,  3834,  3833,  3832,  3835,  3824,  3836</elem>
			<elem id="17">  1903,  1908,  1913,  1914,  3819,  3837,  3836,  3839,  3838,  3840</elem>
			<elem id="18">  1903,  1913,  1912,  1914,  3836,  3832,  3835,  3839,  3840,  3841</elem>
			<elem id="19">  1915,  1916,  1917,  1918,  3844,  3843,  3842,  3846,  3845,  3847</elem>
			<elem id="20">  1915,  1919,  1920,  1918,  3850,  3849,  3848,  3846,  3851,  3852</elem>
<!-- ... 16996 like lines cut -->
		</Elements>
		<Elements type="hex8" mat="1" name="Part3">
			<elem id="17017"> 26434, 26464, 26845, 26515, 26481, 26743, 27751, 26802</elem>
			<elem id="17018"> 26464, 26465, 26846, 26845, 26743, 26744, 27752, 27751</elem>
			<elem id="17019"> 26465, 26466, 26847, 26846, 26744, 26745, 27753, 27752</elem>
			<elem id="17020"> 26466, 26467, 26848, 26847, 26745, 26746, 27754, 27753</elem>
			<elem id="17021"> 26467, 26468, 26849, 26848, 26746, 26747, 27755, 27754</elem>
			<elem id="17022"> 26468, 26469, 26850, 26849, 26747, 26748, 27756, 27755</elem>
			<elem id="17023"> 26469, 26435, 26482, 26850, 26748, 26470, 26761, 27756</elem>
			<elem id="17024"> 26515, 26845, 26839, 26514, 26802, 27751, 27757, 26801</elem>
			<elem id="17025"> 26845, 26846, 26840, 26839, 27751, 27752, 27758, 27757</elem>
			<elem id="17026"> 26846, 26847, 26841, 26840, 27752, 27753, 27759, 27758</elem>
			<elem id="17027"> 26847, 26848, 26842, 26841, 27753, 27754, 27760, 27759</elem>
			<elem id="17028"> 26848, 26849, 26843, 26842, 27754, 27755, 27761, 27760</elem>
			<elem id="17029"> 26849, 26850, 26844, 26843, 27755, 27756, 27762, 27761</elem>
			<elem id="17030"> 26850, 26482, 26483, 26844, 27756, 26761, 26762, 27762</elem>
			<elem id="17031"> 26514, 26839, 26833, 26513, 26801, 27757, 27763, 26800</elem>
			<elem id="17032"> 26839, 26840, 26834, 26833, 27757, 27758, 27764, 27763</elem>
			<elem id="17033"> 26840, 26841, 26835, 26834, 27758, 27759, 27765, 27764</elem>
			<elem id="17034"> 26841, 26842, 26836, 26835, 27759, 27760, 27766, 27765</elem>
			<elem id="17035"> 26842, 26843, 26837, 26836, 27760, 27761, 27767, 27766</elem>
			<elem id="17036"> 26843, 26844, 26838, 26837, 27761, 27762, 27768, 27767</elem>
<!-- ... 1660 like lines cut -->
		</Elements>
		<NodeSet name="FixedDisplacement1">
			<node id="4"/>
			<node id="5"/>
			<node id="10"/>
			<node id="11"/>
			<node id="16"/>
			<node id="17"/>
			<node id="43"/>
			<node id="44"/>
			<node id="45"/>
			<node id="46"/>
			<node id="47"/>
			<node id="48"/>
			<node id="107"/>
			<node id="108"/>
			<node id="109"/>
			<node id="110"/>
			<node id="112"/>
			<node id="113"/>
			<node id="114"/>
			<node id="115"/>
<!-- ... 1460 like lines cut -->
		</NodeSet>
		<Surface name="PressureLoad2">
			<tri6 id="1">   625,   103,   626,  3969,  3973,  3971</tri6>
			<tri6 id="2">  1172,  1171,  1173,  4637,  4638,  4559</tri6>
			<tri6 id="3">  1102,  1104,   347,  5679,  5683,  5681</tri6>
			<tri6 id="4">  1137,   360,   361,  6184,  6188,  6186</tri6>
			<tri6 id="5">    65,    30,    29,  7253,  7256,  7255</tri6>
			<tri6 id="6">  1140,  1134,  1141,  7358,  7362,  7363</tri6>
			<tri6 id="7">  1138,  1141,  1131,  7916,  7920,  7918</tri6>
			<tri6 id="8">   111,     5,   112, 10981, 10985, 10983</tri6>
			<tri6 id="9">   162,  1115,  1121, 11338, 11362, 11361</tri6>
			<tri6 id="10">  1127,   164,   163, 11368, 11370, 11371</tri6>
			<tri6 id="11">  1130,  1124,   358, 11472, 11474, 11473</tri6>
			<tri6 id="12">  1153,  1155,   370, 11515, 11519, 11517</tri6>
			<tri6 id="13">   165,   654,   164, 11791, 11367, 11793</tri6>
			<tri6 id="14">   625,     5,   111, 11913, 10981, 11915</tri6>
			<tri6 id="15">  1150,  1152,  1151, 11953, 11956, 11954</tri6>
			<tri6 id="16">  1164,  1163,   389, 12017, 12021, 12019</tri6>
			<tri6 id="17">   368,  1156,   361, 12023, 12027, 12025</tri6>
			<tri6 id="18">   381,   382,  1158, 12228, 12232, 12230</tri6>
			<tri6 id="19">   103,   104,   626, 12337, 12340,  3973</tri6>
			<tri6 id="20">   628,   107,   108, 12346, 12350, 12348</tri6>
<!-- ... 353 like lines cut -->
		</Surface>
		<Surface name="PressureLoad1">
			<tri6 id="1">  1841,  1844,  1837,  4091,  4095,  4093</tri6>
			<tri6 id="2">  1841,   621,  1842,  4171,  4175,  4173</tri6>
			<tri6 id="3">  1841,  1842,  1847,  4173,  4194,  4192</tri6>
			<tri6 id="4">  1869,  1867,  1873,  4718,  4722,  4720</tri6>
			<tri6 id="5">  1840,   102,    82,  4765,  4769,  4767</tri6>
			<tri6 id="6">   614,   615,  1818,  5261,  5265,  5263</tri6>
			<tri6 id="7">  1846,   615,   614,  5608,  5261,  5610</tri6>
			<tri6 id="8">   622,  1827,   621,  6168,  6169,  6167</tri6>
			<tri6 id="9">   596,  1862,   597,  6810,  6814,  6812</tri6>
			<tri6 id="10">  1854,  1857,  1859,  7585,  7586,  7587</tri6>
			<tri6 id="11">  1857,   613,   612,  7620,  7624,  7622</tri6>
			<tri6 id="12">  1857,  1863,  1859,  7775,  7776,  7586</tri6>
			<tri6 id="13">  1856,  1853,  1858,  7899,  7903,  7901</tri6>
			<tri6 id="14">  1818,   613,   614,  7926,  7927,  5263</tri6>
			<tri6 id="15">  1854,  1852,  1857,  8660,  8663,  7585</tri6>
			<tri6 id="16">   619,  1842,   620,  8936,  8940,  8938</tri6>
			<tri6 id="17">   567,    90,   553,  9395,  9399,  9397</tri6>
			<tri6 id="18">  1818,   615,   541,  5265,  3995,  9876</tri6>
			<tri6 id="19">  1850,  1853,  1856, 10595,  7899, 10597</tri6>
			<tri6 id="20">  1857,   612,  1863,  7622, 11059,  7775</tri6>
<!-- ... 353 like lines cut -->
		</Surface>
	</Geometry>
	<Boundary>
		<fix bc="x,y,z" node_set="FixedDisplacement1"/>
	</Boundary>
	<Loads>
		<surface_load type="pressure" surface="PressureLoad2">
			<pressure lc="1">0.001</pressure>
			<linear>0</linear>
			<symmetric_stiffness>1</symmetric_stiffness>
		</surface_load>
	</Loads>
	<LoadData>
		<loadcurve id="1" type="smooth">
			<point>0,0</point>
			<point>1,1</point>
		</loadcurve>
		<loadcurve id="2" type="smooth">
			<point>0,0</point>
			<point>1,1</point>
		</loadcurve>
	</LoadData>
	<Output>
		<plotfile type="febio">
			<var type="displacement"/>
			<var type="stress"/>
		</plotfile>
	</Output>
	<Step name="Step1">
		<Control>
			<time_steps>10</time_steps>
			<step_size>0.1</step_size>
			<max_refs>15</max_refs>
			<max_ups>10</max_ups>
			<diverge_reform>1</diverge_reform>
			<reform_each_time_step>1</reform_each_time_step>
			<dtol>0.001</dtol>
			<etol>0.01</etol>
			<rtol>0</rtol>
			<lstol>0.9</lstol>
			<min_residual>1e-20</min_residual>
			<qnmethod>0</qnmethod>
			<time_stepper>
				<dtmin>0.01</dtmin>
				<dtmax>0.1</dtmax>
				<max_retries>5</max_retries>
				<opt_iter>10</opt_iter>
			</time_stepper>
			<analysis type="static"/>
		</Control>
		<Loads>
			<surface_load type="pressure" surface="PressureLoad1">
				<pressure lc="2">-0.001</pressure>
				<linear>0</linear>
				<symmetric_stiffness>1</symmetric_stiffness>
			</surface_load>
		</Loads>
	</Step>
</febio_spec>
