<?xml version="1.0" encoding="ISO-8859-1"?>
<febio_spec version="2.5">
	<Module type="solid"/>
	<Control>
		<time_steps>10</time_steps>
		<step_size>0.1</step_size>
		<max_refs>15</max_refs>
		<max_ups>10</max_ups>
		<diverge_reform>1</diverge_reform>
		<reform_each_time_step>1</reform_each_time_step>
		<dtol>0.001</dtol>
		<etol>0.01</etol>
		<rtol>0</rtol>
		<lstol>0.9</lstol>
		<min_residual>1e-20</min_residual>
		<qnmethod>0</qnmethod>
		<time_stepper>
			<dtmin>0.01</dtmin>
			<dtmax>0.1</dtmax>
			<max_retries>5</max_retries>
			<opt_iter>10</opt_iter>
		</time_stepper>
		<analysis type="static"/>
	</Control>
	<Globals>
		<Constants>
			<T>0</T>
			<R>0</R>
			<Fc>0</Fc>
		</Constants>
	</Globals>
	<Material>
		<material id="1" name="box" type="rigid body">
			<density>1</density>
			<center_of_mass>2.5,0,0.5</center_of_mass>
		</material>
		<material id="2" name="Material2" type="Mooney-Rivlin">
			<density>1</density>
			<c1>1</c1>
			<c2>0</c2>
			<k>100</k>
		</material>
	</Material>
	<Geometry>
		<Nodes name="Object01">
			<node id="1"> -2.0000000e+00, -5.0000000e-01,  0.0000000e+00</node>
			<node id="2"> -2.0000000e+00, -5.0000000e-01,  1.0000000e-01</node>
			<node id="3"> -2.0000000e+00, -5.0000000e-01,  2.0000000e-01</node>
			<node id="4"> -2.0000000e+00, -5.0000000e-01,  3.0000000e-01</node>
			<node id="5"> -2.0000000e+00, -5.0000000e-01,  4.0000000e-01</node>
			<node id="6"> -2.0000000e+00, -5.0000000e-01,  5.0000000e-01</node>
			<node id="7"> -2.0000000e+00, -5.0000000e-01,  6.0000000e-01</node>
			<node id="8"> -2.0000000e+00, -5.0000000e-01,  7.0000000e-01</node>
			<node id="9"> -2.0000000e+00, -5.0000000e-01,  8.0000000e-01</node>
			<node id="10"> -2.0000000e+00, -5.0000000e-01,  9.0000000e-01</node>
			<node id="11"> -2.0000000e+00, -5.0000000e-01,  1.0000000e+00</node>
			<node id="12"> -2.0000000e+00, -4.0000000e-01,  0.0000000e+00</node>
			<node id="13"> -2.0000000e+00, -4.0000000e-01,  1.0000000e-01</node>
			<node id="14"> -2.0000000e+00, -4.0000000e-01,  2.0000000e-01</node>
			<node id="15"> -2.0000000e+00, -4.0000000e-01,  3.0000000e-01</node>
			<node id="16"> -2.0000000e+00, -4.0000000e-01,  4.0000000e-01</node>
			<node id="17"> -2.0000000e+00, -4.0000000e-01,  5.0000000e-01</node>
			<node id="18"> -2.0000000e+00, -4.0000000e-01,  6.0000000e-01</node>
			<node id="19"> -2.0000000e+00, -4.0000000e-01,  7.0000000e-01</node>
			<node id="20"> -2.0000000e+00, -4.0000000e-01,  8.0000000e-01</node>
<!-- ... 3731 like lines cut -->
		</Nodes>
		<Nodes name="Object02">
			<node id="3752">  2.0000000e+00, -5.0000000e-01,  0.0000000e+00</node>
			<node id="3753">  2.0000000e+00, -5.0000000e-01,  1.0000000e+00</node>
			<node id="3754">  2.0000000e+00,  5.0000000e-01,  0.0000000e+00</node>
			<node id="3755">  2.0000000e+00,  5.0000000e-01,  1.0000000e+00</node>
			<node id="3756">  3.0000000e+00, -5.0000000e-01,  0.0000000e+00</node>
			<node id="3757">  3.0000000e+00, -5.0000000e-01,  1.0000000e+00</node>
			<node id="3758">  3.0000000e+00,  5.0000000e-01,  0.0000000e+00</node>
			<node id="3759">  3.0000000e+00,  5.0000000e-01,  1.0000000e+00</node>
		</Nodes>
		<Elements type="hex8" mat="2" name="Part1">
			<elem id="1">     1,   122,   133,    12,     2,   123,   134,    13</elem>
			<elem id="2">     2,   123,   134,    13,     3,   124,   135,    14</elem>
			<elem id="3">     3,   124,   135,    14,     4,   125,   136,    15</elem>
			<elem id="4">     4,   125,   136,    15,     5,   126,   137,    16</elem>
			<elem id="5">     5,   126,   137,    16,     6,   127,   138,    17</elem>
			<elem id="6">     6,   127,   138,    17,     7,   128,   139,    18</elem>
			<elem id="7">     7,   128,   139,    18,     8,   129,   140,    19</elem>
			<elem id="8">     8,   129,   140,    19,     9,   130,   141,    20</elem>
			<elem id="9">     9,   130,   141,    20,    10,   131,   142,    21</elem>
			<elem id="10">    10,   131,   142,    21,    11,   132,   143,    22</elem>
			<elem id="11">    12,   133,   144,    23,    13,   134,   145,    24</elem>
			<elem id="12">    13,   134,   145,    24,    14,   135,   146,    25</elem>
			<elem id="13">    14,   135,   146,    25,    15,   136,   147,    26</elem>
			<elem id="14">    15,   136,   147,    26,    16,   137,   148,    27</elem>
			<elem id="15">    16,   137,   148,    27,    17,   138,   149,    28</elem>
			<elem id="16">    17,   138,   149,    28,    18,   139,   150,    29</elem>
			<elem id="17">    18,   139,   150,    29,    19,   140,   151,    30</elem>
			<elem id="18">    19,   140,   151,    30,    20,   141,   152,    31</elem>
			<elem id="19">    20,   141,   152,    31,    21,   142,   153,    32</elem>
			<elem id="20">    21,   142,   153,    32,    22,   143,   154,    33</elem>
<!-- ... 2980 like lines cut -->
		</Elements>
		<Elements type="hex8" mat="1" name="Part2">
			<elem id="3001">  3752,  3756,  3758,  3754,  3753,  3757,  3759,  3755</elem>
		</Elements>
		<NodeSet name="fix_left_end">
			<node id="1"/>
			<node id="2"/>
			<node id="3"/>
			<node id="4"/>
			<node id="5"/>
			<node id="6"/>
			<node id="7"/>
			<node id="8"/>
			<node id="9"/>
			<node id="10"/>
			<node id="11"/>
			<node id="12"/>
			<node id="13"/>
			<node id="14"/>
			<node id="15"/>
			<node id="16"/>
			<node id="17"/>
			<node id="18"/>
			<node id="19"/>
			<node id="20"/>
<!-- ... 101 like lines cut -->
		</NodeSet>
		<NodeSet name="Rigid1">
			<node id="3631"/>
			<node id="3632"/>
			<node id="3633"/>
			<node id="3634"/>
			<node id="3635"/>
			<node id="3636"/>
			<node id="3637"/>
			<node id="3638"/>
			<node id="3639"/>
			<node id="3640"/>
			<node id="3641"/>
			<node id="3642"/>
			<node id="3643"/>
			<node id="3644"/>
			<node id="3645"/>
			<node id="3646"/>
			<node id="3647"/>
			<node id="3648"/>
			<node id="3649"/>
			<node id="3650"/>
<!-- ... 101 like lines cut -->
		</NodeSet>
	</Geometry>
	<Boundary>
		<fix bc="x,y,z" node_set="fix_left_end"/>
		<rigid name="Rigid1" rb="1" node_set="Rigid1"/>
		<rigid_body mat="1">
			<fixed bc="x"/>
			<fixed bc="y"/>
			<fixed bc="z"/>
			<fixed bc="Ry"/>
			<fixed bc="Rz"/>
		</rigid_body>
		<rigid_body mat="1">
			<prescribed bc="Rx" lc="1">3.14</prescribed>
		</rigid_body>
	</Boundary>
	<Contact>
	</Contact>
	<LoadData>
		<loadcurve id="1" type="smooth">
			<point>0,0</point>
			<point>1,1</point>
		</loadcurve>
	</LoadData>
	<Output>
		<plotfile type="febio">
			<var type="displacement"/>
			<var type="stress"/>
		</plotfile>
	</Output>
</febio_spec>
