<?xml version="1.0" encoding="ISO-8859-1"?>
<febio_spec version="3.0">
	<Module type="biphasic"/>
	<Control>
		<analysis>TRANSIENT</analysis>
		<time_steps>240</time_steps>
		<step_size>0.1</step_size>
		<solver>
			<max_refs>15</max_refs>
			<max_ups>10</max_ups>
			<diverge_reform>1</diverge_reform>
			<reform_each_time_step>1</reform_each_time_step>
			<dtol>0.001</dtol>
			<etol>0.01</etol>
			<rtol>0</rtol>
			<ptol>0.01</ptol>
			<lstol>0.9</lstol>
			<min_residual>1e-20</min_residual>
			<qnmethod>BROYDEN</qnmethod>
			<mixed_formulation>default</mixed_formulation>
			<symmetric_stiffness>0</symmetric_stiffness>
		</solver>
		<time_stepper>
			<dtmin>0.0001</dtmin>
			<dtmax>0.1</dtmax>
			<max_retries>5</max_retries>
			<opt_iter>10</opt_iter>
		</time_stepper>
		<plot_stride>2</plot_stride>
	</Control>
	<Globals>
		<Constants>
			<T>0</T>
			<R>0</R>
			<Fc>0</Fc>
		</Constants>
	</Globals>
	<Material>
		<material id="1" name="Material1" type="biphasic">
			<phi0>0.9</phi0>
			<fluid_density>1</fluid_density>
			<tau>0</tau>
			<solid type="neo-Hookean">
				<density>1</density>
				<E>10</E>
				<v>0.25</v>
			</solid>
			<permeability type="perm-const-iso">
				<perm>0.001</perm>
			</permeability>
		</material>
	</Material>
	<Mesh>
		<Nodes name="Object1">
			<node id="1">0,0,0</node>
			<node id="2">0.0522133859,0,0</node>
			<node id="3">0.0521418293,0.00273263743,0</node>
			<node id="4">0.0519273555,0.0054577849,0</node>
			<node id="5">0.0515705525,0.00816797295,0</node>
			<node id="6">0.0510723982,0.0108557732,0</node>
			<node id="7">0.050434258,0.0135138185,0</node>
			<node id="8">0.049657881,0.0161348233,0</node>
			<node id="9">0.0487453952,0.0187116037,0</node>
			<node id="10">0.0476993017,0.021237097,0</node>
			<node id="11">0.0465224677,0.0237043808,0</node>
			<node id="12">0.0452181188,0.0261066925,0</node>
			<node id="13">0.0437898303,0.0284374477,0</node>
			<node id="14">0.0422415169,0.0306902578,0</node>
			<node id="15">0.0405774224,0.032858948,0</node>
			<node id="16">0.038802108,0.0349375741,0</node>
			<node id="17">0.0369204397,0.0369204387,0</node>
			<node id="18">0.0349375751,0.0388021071,0</node>
			<node id="19">0.0328589491,0.0405774215,0</node>
			<node id="20">0.0306902589,0.042241516,0</node>
<!-- ... 28841 like lines cut -->
		</Nodes>
		<Elements type="penta6" name="Part1">
			<elem id="1">1,2,3,932,933,934</elem>
			<elem id="2">1,3,4,932,934,935</elem>
			<elem id="3">1,4,5,932,935,936</elem>
			<elem id="4">1,5,6,932,936,937</elem>
			<elem id="5">1,6,7,932,937,938</elem>
			<elem id="6">1,7,8,932,938,939</elem>
			<elem id="7">1,8,9,932,939,940</elem>
			<elem id="8">1,9,10,932,940,941</elem>
			<elem id="9">1,10,11,932,941,942</elem>
			<elem id="10">1,11,12,932,942,943</elem>
			<elem id="11">1,12,13,932,943,944</elem>
			<elem id="12">1,13,14,932,944,945</elem>
			<elem id="13">1,14,15,932,945,946</elem>
			<elem id="14">1,15,16,932,946,947</elem>
			<elem id="15">1,16,17,932,947,948</elem>
			<elem id="16">1,17,18,932,948,949</elem>
			<elem id="17">1,18,19,932,949,950</elem>
			<elem id="18">1,19,20,932,950,951</elem>
			<elem id="19">1,20,21,932,951,952</elem>
			<elem id="20">1,21,22,932,952,953</elem>
<!-- ... 880 like lines cut -->
		</Elements>
		<Elements type="hex8" name="Part1__2">
			<elem id="901">2,33,34,3,933,964,965,934</elem>
			<elem id="902">3,34,35,4,934,965,966,935</elem>
			<elem id="903">4,35,36,5,935,966,967,936</elem>
			<elem id="904">5,36,37,6,936,967,968,937</elem>
			<elem id="905">6,37,38,7,937,968,969,938</elem>
			<elem id="906">7,38,39,8,938,969,970,939</elem>
			<elem id="907">8,39,40,9,939,970,971,940</elem>
			<elem id="908">9,40,41,10,940,971,972,941</elem>
			<elem id="909">10,41,42,11,941,972,973,942</elem>
			<elem id="910">11,42,43,12,942,973,974,943</elem>
			<elem id="911">12,43,44,13,943,974,975,944</elem>
			<elem id="912">13,44,45,14,944,975,976,945</elem>
			<elem id="913">14,45,46,15,945,976,977,946</elem>
			<elem id="914">15,46,47,16,946,977,978,947</elem>
			<elem id="915">16,47,48,17,947,978,979,948</elem>
			<elem id="916">17,48,49,18,948,979,980,949</elem>
			<elem id="917">18,49,50,19,949,980,981,950</elem>
			<elem id="918">19,50,51,20,950,981,982,951</elem>
			<elem id="919">20,51,52,21,951,982,983,952</elem>
			<elem id="920">21,52,53,22,952,983,984,953</elem>
<!-- ... 26080 like lines cut -->
		</Elements>
		<Surface name="FixZ">
			<tri3 id="1">1,3,2</tri3>
			<quad4 id="2">3,34,33,2</quad4>
			<quad4 id="3">34,65,64,33</quad4>
			<quad4 id="4">65,96,95,64</quad4>
			<quad4 id="5">96,127,126,95</quad4>
			<quad4 id="6">127,158,157,126</quad4>
			<quad4 id="7">158,189,188,157</quad4>
			<quad4 id="8">189,220,219,188</quad4>
			<quad4 id="9">220,251,250,219</quad4>
			<quad4 id="10">251,282,281,250</quad4>
			<quad4 id="11">282,313,312,281</quad4>
			<quad4 id="12">313,344,343,312</quad4>
			<quad4 id="13">344,375,374,343</quad4>
			<quad4 id="14">375,406,405,374</quad4>
			<quad4 id="15">406,437,436,405</quad4>
			<quad4 id="16">437,468,467,436</quad4>
			<quad4 id="17">468,499,498,467</quad4>
			<quad4 id="18">499,530,529,498</quad4>
			<quad4 id="19">530,561,560,529</quad4>
			<quad4 id="20">561,592,591,560</quad4>
			<quad4 id="21">592,623,622,591</quad4>
<!-- ... 9 like lines cut -->
			<tri3 id="31">1,4,3</tri3>
			<quad4 id="32">4,35,34,3</quad4>
			<quad4 id="33">35,66,65,34</quad4>
			<quad4 id="34">66,97,96,65</quad4>
			<quad4 id="35">97,128,127,96</quad4>
			<quad4 id="36">128,159,158,127</quad4>
			<quad4 id="37">159,190,189,158</quad4>
			<quad4 id="38">190,221,220,189</quad4>
			<quad4 id="39">221,252,251,220</quad4>
			<quad4 id="40">252,283,282,251</quad4>
			<quad4 id="41">283,314,313,282</quad4>
			<quad4 id="42">314,345,344,313</quad4>
			<quad4 id="43">345,376,375,344</quad4>
			<quad4 id="44">376,407,406,375</quad4>
			<quad4 id="45">407,438,437,406</quad4>
			<quad4 id="46">438,469,468,437</quad4>
			<quad4 id="47">469,500,499,468</quad4>
			<quad4 id="48">500,531,530,499</quad4>
			<quad4 id="49">531,562,561,530</quad4>
			<quad4 id="50">562,593,592,561</quad4>
			<quad4 id="51">593,624,623,592</quad4>
<!-- ... 9 like lines cut -->
			<tri3 id="61">1,5,4</tri3>
			<quad4 id="62">5,36,35,4</quad4>
			<quad4 id="63">36,67,66,35</quad4>
			<quad4 id="64">67,98,97,66</quad4>
			<quad4 id="65">98,129,128,97</quad4>
			<quad4 id="66">129,160,159,128</quad4>
			<quad4 id="67">160,191,190,159</quad4>
			<quad4 id="68">191,222,221,190</quad4>
			<quad4 id="69">222,253,252,221</quad4>
			<quad4 id="70">253,284,283,252</quad4>
			<quad4 id="71">284,315,314,283</quad4>
			<quad4 id="72">315,346,345,314</quad4>
			<quad4 id="73">346,377,376,345</quad4>
			<quad4 id="74">377,408,407,376</quad4>
			<quad4 id="75">408,439,438,407</quad4>
			<quad4 id="76">439,470,469,438</quad4>
			<quad4 id="77">470,501,500,469</quad4>
			<quad4 id="78">501,532,531,500</quad4>
			<quad4 id="79">532,563,562,531</quad4>
			<quad4 id="80">563,594,593,562</quad4>
			<quad4 id="81">594,625,624,593</quad4>
<!-- ... 9 like lines cut -->
			<tri3 id="91">1,6,5</tri3>
			<quad4 id="92">6,37,36,5</quad4>
			<quad4 id="93">37,68,67,36</quad4>
			<quad4 id="94">68,99,98,67</quad4>
			<quad4 id="95">99,130,129,98</quad4>
			<quad4 id="96">130,161,160,129</quad4>
			<quad4 id="97">161,192,191,160</quad4>
			<quad4 id="98">192,223,222,191</quad4>
			<quad4 id="99">223,254,253,222</quad4>
			<quad4 id="100">254,285,284,253</quad4>
			<quad4 id="101">285,316,315,284</quad4>
			<quad4 id="102">316,347,346,315</quad4>
			<quad4 id="103">347,378,377,346</quad4>
			<quad4 id="104">378,409,408,377</quad4>
			<quad4 id="105">409,440,439,408</quad4>
			<quad4 id="106">440,471,470,439</quad4>
			<quad4 id="107">471,502,501,470</quad4>
			<quad4 id="108">502,533,532,501</quad4>
			<quad4 id="109">533,564,563,532</quad4>
			<quad4 id="110">564,595,594,563</quad4>
			<quad4 id="111">595,626,625,594</quad4>
<!-- ... 9 like lines cut -->
			<tri3 id="121">1,7,6</tri3>
			<quad4 id="122">7,38,37,6</quad4>
			<quad4 id="123">38,69,68,37</quad4>
			<quad4 id="124">69,100,99,68</quad4>
			<quad4 id="125">100,131,130,99</quad4>
			<quad4 id="126">131,162,161,130</quad4>
			<quad4 id="127">162,193,192,161</quad4>
			<quad4 id="128">193,224,223,192</quad4>
			<quad4 id="129">224,255,254,223</quad4>
			<quad4 id="130">255,286,285,254</quad4>
			<quad4 id="131">286,317,316,285</quad4>
			<quad4 id="132">317,348,347,316</quad4>
			<quad4 id="133">348,379,378,347</quad4>
			<quad4 id="134">379,410,409,378</quad4>
			<quad4 id="135">410,441,440,409</quad4>
			<quad4 id="136">441,472,471,440</quad4>
			<quad4 id="137">472,503,502,471</quad4>
			<quad4 id="138">503,534,533,502</quad4>
			<quad4 id="139">534,565,564,533</quad4>
			<quad4 id="140">565,596,595,564</quad4>
			<quad4 id="141">596,627,626,595</quad4>
<!-- ... 9 like lines cut -->
			<tri3 id="151">1,8,7</tri3>
			<quad4 id="152">8,39,38,7</quad4>
			<quad4 id="153">39,70,69,38</quad4>
			<quad4 id="154">70,101,100,69</quad4>
			<quad4 id="155">101,132,131,100</quad4>
			<quad4 id="156">132,163,162,131</quad4>
			<quad4 id="157">163,194,193,162</quad4>
			<quad4 id="158">194,225,224,193</quad4>
			<quad4 id="159">225,256,255,224</quad4>
			<quad4 id="160">256,287,286,255</quad4>
			<quad4 id="161">287,318,317,286</quad4>
			<quad4 id="162">318,349,348,317</quad4>
			<quad4 id="163">349,380,379,348</quad4>
			<quad4 id="164">380,411,410,379</quad4>
			<quad4 id="165">411,442,441,410</quad4>
			<quad4 id="166">442,473,472,441</quad4>
			<quad4 id="167">473,504,503,472</quad4>
			<quad4 id="168">504,535,534,503</quad4>
			<quad4 id="169">535,566,565,534</quad4>
			<quad4 id="170">566,597,596,565</quad4>
			<quad4 id="171">597,628,627,596</quad4>
<!-- ... 9 like lines cut -->
			<tri3 id="181">1,9,8</tri3>
			<quad4 id="182">9,40,39,8</quad4>
			<quad4 id="183">40,71,70,39</quad4>
			<quad4 id="184">71,102,101,70</quad4>
			<quad4 id="185">102,133,132,101</quad4>
			<quad4 id="186">133,164,163,132</quad4>
			<quad4 id="187">164,195,194,163</quad4>
			<quad4 id="188">195,226,225,194</quad4>
			<quad4 id="189">226,257,256,225</quad4>
			<quad4 id="190">257,288,287,256</quad4>
			<quad4 id="191">288,319,318,287</quad4>
			<quad4 id="192">319,350,349,318</quad4>
			<quad4 id="193">350,381,380,349</quad4>
			<quad4 id="194">381,412,411,380</quad4>
			<quad4 id="195">412,443,442,411</quad4>
			<quad4 id="196">443,474,473,442</quad4>
			<quad4 id="197">474,505,504,473</quad4>
			<quad4 id="198">505,536,535,504</quad4>
			<quad4 id="199">536,567,566,535</quad4>
			<quad4 id="200">567,598,597,566</quad4>
			<quad4 id="201">598,629,628,597</quad4>
<!-- ... 9 like lines cut -->
			<tri3 id="211">1,10,9</tri3>
			<quad4 id="212">10,41,40,9</quad4>
			<quad4 id="213">41,72,71,40</quad4>
			<quad4 id="214">72,103,102,71</quad4>
			<quad4 id="215">103,134,133,102</quad4>
			<quad4 id="216">134,165,164,133</quad4>
			<quad4 id="217">165,196,195,164</quad4>
			<quad4 id="218">196,227,226,195</quad4>
			<quad4 id="219">227,258,257,226</quad4>
			<quad4 id="220">258,289,288,257</quad4>
			<quad4 id="221">289,320,319,288</quad4>
			<quad4 id="222">320,351,350,319</quad4>
			<quad4 id="223">351,382,381,350</quad4>
			<quad4 id="224">382,413,412,381</quad4>
			<quad4 id="225">413,444,443,412</quad4>
			<quad4 id="226">444,475,474,443</quad4>
			<quad4 id="227">475,506,505,474</quad4>
			<quad4 id="228">506,537,536,505</quad4>
			<quad4 id="229">537,568,567,536</quad4>
			<quad4 id="230">568,599,598,567</quad4>
			<quad4 id="231">599,630,629,598</quad4>
<!-- ... 9 like lines cut -->
			<tri3 id="241">1,11,10</tri3>
			<quad4 id="242">11,42,41,10</quad4>
			<quad4 id="243">42,73,72,41</quad4>
			<quad4 id="244">73,104,103,72</quad4>
			<quad4 id="245">104,135,134,103</quad4>
			<quad4 id="246">135,166,165,134</quad4>
			<quad4 id="247">166,197,196,165</quad4>
			<quad4 id="248">197,228,227,196</quad4>
			<quad4 id="249">228,259,258,227</quad4>
			<quad4 id="250">259,290,289,258</quad4>
			<quad4 id="251">290,321,320,289</quad4>
			<quad4 id="252">321,352,351,320</quad4>
			<quad4 id="253">352,383,382,351</quad4>
			<quad4 id="254">383,414,413,382</quad4>
			<quad4 id="255">414,445,444,413</quad4>
			<quad4 id="256">445,476,475,444</quad4>
			<quad4 id="257">476,507,506,475</quad4>
			<quad4 id="258">507,538,537,506</quad4>
			<quad4 id="259">538,569,568,537</quad4>
			<quad4 id="260">569,600,599,568</quad4>
			<quad4 id="261">600,631,630,599</quad4>
<!-- ... 9 like lines cut -->
			<tri3 id="271">1,12,11</tri3>
			<quad4 id="272">12,43,42,11</quad4>
			<quad4 id="273">43,74,73,42</quad4>
			<quad4 id="274">74,105,104,73</quad4>
			<quad4 id="275">105,136,135,104</quad4>
			<quad4 id="276">136,167,166,135</quad4>
			<quad4 id="277">167,198,197,166</quad4>
			<quad4 id="278">198,229,228,197</quad4>
			<quad4 id="279">229,260,259,228</quad4>
			<quad4 id="280">260,291,290,259</quad4>
			<quad4 id="281">291,322,321,290</quad4>
			<quad4 id="282">322,353,352,321</quad4>
			<quad4 id="283">353,384,383,352</quad4>
			<quad4 id="284">384,415,414,383</quad4>
			<quad4 id="285">415,446,445,414</quad4>
			<quad4 id="286">446,477,476,445</quad4>
			<quad4 id="287">477,508,507,476</quad4>
			<quad4 id="288">508,539,538,507</quad4>
			<quad4 id="289">539,570,569,538</quad4>
			<quad4 id="290">570,601,600,569</quad4>
			<quad4 id="291">601,632,631,600</quad4>
<!-- ... 9 like lines cut -->
			<tri3 id="301">1,13,12</tri3>
			<quad4 id="302">13,44,43,12</quad4>
			<quad4 id="303">44,75,74,43</quad4>
			<quad4 id="304">75,106,105,74</quad4>
			<quad4 id="305">106,137,136,105</quad4>
			<quad4 id="306">137,168,167,136</quad4>
			<quad4 id="307">168,199,198,167</quad4>
			<quad4 id="308">199,230,229,198</quad4>
			<quad4 id="309">230,261,260,229</quad4>
			<quad4 id="310">261,292,291,260</quad4>
			<quad4 id="311">292,323,322,291</quad4>
			<quad4 id="312">323,354,353,322</quad4>
			<quad4 id="313">354,385,384,353</quad4>
			<quad4 id="314">385,416,415,384</quad4>
			<quad4 id="315">416,447,446,415</quad4>
			<quad4 id="316">447,478,477,446</quad4>
			<quad4 id="317">478,509,508,477</quad4>
			<quad4 id="318">509,540,539,508</quad4>
			<quad4 id="319">540,571,570,539</quad4>
			<quad4 id="320">571,602,601,570</quad4>
			<quad4 id="321">602,633,632,601</quad4>
<!-- ... 9 like lines cut -->
			<tri3 id="331">1,14,13</tri3>
			<quad4 id="332">14,45,44,13</quad4>
			<quad4 id="333">45,76,75,44</quad4>
			<quad4 id="334">76,107,106,75</quad4>
			<quad4 id="335">107,138,137,106</quad4>
			<quad4 id="336">138,169,168,137</quad4>
			<quad4 id="337">169,200,199,168</quad4>
			<quad4 id="338">200,231,230,199</quad4>
			<quad4 id="339">231,262,261,230</quad4>
			<quad4 id="340">262,293,292,261</quad4>
			<quad4 id="341">293,324,323,292</quad4>
			<quad4 id="342">324,355,354,323</quad4>
			<quad4 id="343">355,386,385,354</quad4>
			<quad4 id="344">386,417,416,385</quad4>
			<quad4 id="345">417,448,447,416</quad4>
			<quad4 id="346">448,479,478,447</quad4>
			<quad4 id="347">479,510,509,478</quad4>
			<quad4 id="348">510,541,540,509</quad4>
			<quad4 id="349">541,572,571,540</quad4>
			<quad4 id="350">572,603,602,571</quad4>
			<quad4 id="351">603,634,633,602</quad4>
<!-- ... 9 like lines cut -->
			<tri3 id="361">1,15,14</tri3>
			<quad4 id="362">15,46,45,14</quad4>
			<quad4 id="363">46,77,76,45</quad4>
			<quad4 id="364">77,108,107,76</quad4>
			<quad4 id="365">108,139,138,107</quad4>
			<quad4 id="366">139,170,169,138</quad4>
			<quad4 id="367">170,201,200,169</quad4>
			<quad4 id="368">201,232,231,200</quad4>
			<quad4 id="369">232,263,262,231</quad4>
			<quad4 id="370">263,294,293,262</quad4>
			<quad4 id="371">294,325,324,293</quad4>
			<quad4 id="372">325,356,355,324</quad4>
			<quad4 id="373">356,387,386,355</quad4>
			<quad4 id="374">387,418,417,386</quad4>
			<quad4 id="375">418,449,448,417</quad4>
			<quad4 id="376">449,480,479,448</quad4>
			<quad4 id="377">480,511,510,479</quad4>
			<quad4 id="378">511,542,541,510</quad4>
			<quad4 id="379">542,573,572,541</quad4>
			<quad4 id="380">573,604,603,572</quad4>
			<quad4 id="381">604,635,634,603</quad4>
<!-- ... 9 like lines cut -->
			<tri3 id="391">1,16,15</tri3>
			<quad4 id="392">16,47,46,15</quad4>
			<quad4 id="393">47,78,77,46</quad4>
			<quad4 id="394">78,109,108,77</quad4>
			<quad4 id="395">109,140,139,108</quad4>
			<quad4 id="396">140,171,170,139</quad4>
			<quad4 id="397">171,202,201,170</quad4>
			<quad4 id="398">202,233,232,201</quad4>
			<quad4 id="399">233,264,263,232</quad4>
			<quad4 id="400">264,295,294,263</quad4>
			<quad4 id="401">295,326,325,294</quad4>
			<quad4 id="402">326,357,356,325</quad4>
			<quad4 id="403">357,388,387,356</quad4>
			<quad4 id="404">388,419,418,387</quad4>
			<quad4 id="405">419,450,449,418</quad4>
			<quad4 id="406">450,481,480,449</quad4>
			<quad4 id="407">481,512,511,480</quad4>
			<quad4 id="408">512,543,542,511</quad4>
			<quad4 id="409">543,574,573,542</quad4>
			<quad4 id="410">574,605,604,573</quad4>
			<quad4 id="411">605,636,635,604</quad4>
<!-- ... 9 like lines cut -->
			<tri3 id="421">1,17,16</tri3>
			<quad4 id="422">17,48,47,16</quad4>
			<quad4 id="423">48,79,78,47</quad4>
			<quad4 id="424">79,110,109,78</quad4>
			<quad4 id="425">110,141,140,109</quad4>
			<quad4 id="426">141,172,171,140</quad4>
			<quad4 id="427">172,203,202,171</quad4>
			<quad4 id="428">203,234,233,202</quad4>
			<quad4 id="429">234,265,264,233</quad4>
			<quad4 id="430">265,296,295,264</quad4>
			<quad4 id="431">296,327,326,295</quad4>
			<quad4 id="432">327,358,357,326</quad4>
			<quad4 id="433">358,389,388,357</quad4>
			<quad4 id="434">389,420,419,388</quad4>
			<quad4 id="435">420,451,450,419</quad4>
			<quad4 id="436">451,482,481,450</quad4>
			<quad4 id="437">482,513,512,481</quad4>
			<quad4 id="438">513,544,543,512</quad4>
			<quad4 id="439">544,575,574,543</quad4>
			<quad4 id="440">575,606,605,574</quad4>
			<quad4 id="441">606,637,636,605</quad4>
<!-- ... 9 like lines cut -->
			<tri3 id="451">1,18,17</tri3>
			<quad4 id="452">18,49,48,17</quad4>
			<quad4 id="453">49,80,79,48</quad4>
			<quad4 id="454">80,111,110,79</quad4>
			<quad4 id="455">111,142,141,110</quad4>
			<quad4 id="456">142,173,172,141</quad4>
			<quad4 id="457">173,204,203,172</quad4>
			<quad4 id="458">204,235,234,203</quad4>
			<quad4 id="459">235,266,265,234</quad4>
			<quad4 id="460">266,297,296,265</quad4>
			<quad4 id="461">297,328,327,296</quad4>
			<quad4 id="462">328,359,358,327</quad4>
			<quad4 id="463">359,390,389,358</quad4>
			<quad4 id="464">390,421,420,389</quad4>
			<quad4 id="465">421,452,451,420</quad4>
			<quad4 id="466">452,483,482,451</quad4>
			<quad4 id="467">483,514,513,482</quad4>
			<quad4 id="468">514,545,544,513</quad4>
			<quad4 id="469">545,576,575,544</quad4>
			<quad4 id="470">576,607,606,575</quad4>
			<quad4 id="471">607,638,637,606</quad4>
<!-- ... 9 like lines cut -->
			<tri3 id="481">1,19,18</tri3>
			<quad4 id="482">19,50,49,18</quad4>
			<quad4 id="483">50,81,80,49</quad4>
			<quad4 id="484">81,112,111,80</quad4>
			<quad4 id="485">112,143,142,111</quad4>
			<quad4 id="486">143,174,173,142</quad4>
			<quad4 id="487">174,205,204,173</quad4>
			<quad4 id="488">205,236,235,204</quad4>
			<quad4 id="489">236,267,266,235</quad4>
			<quad4 id="490">267,298,297,266</quad4>
			<quad4 id="491">298,329,328,297</quad4>
			<quad4 id="492">329,360,359,328</quad4>
			<quad4 id="493">360,391,390,359</quad4>
			<quad4 id="494">391,422,421,390</quad4>
			<quad4 id="495">422,453,452,421</quad4>
			<quad4 id="496">453,484,483,452</quad4>
			<quad4 id="497">484,515,514,483</quad4>
			<quad4 id="498">515,546,545,514</quad4>
			<quad4 id="499">546,577,576,545</quad4>
			<quad4 id="500">577,608,607,576</quad4>
			<quad4 id="501">608,639,638,607</quad4>
<!-- ... 9 like lines cut -->
			<tri3 id="511">1,20,19</tri3>
			<quad4 id="512">20,51,50,19</quad4>
			<quad4 id="513">51,82,81,50</quad4>
			<quad4 id="514">82,113,112,81</quad4>
			<quad4 id="515">113,144,143,112</quad4>
			<quad4 id="516">144,175,174,143</quad4>
			<quad4 id="517">175,206,205,174</quad4>
			<quad4 id="518">206,237,236,205</quad4>
			<quad4 id="519">237,268,267,236</quad4>
			<quad4 id="520">268,299,298,267</quad4>
			<quad4 id="521">299,330,329,298</quad4>
			<quad4 id="522">330,361,360,329</quad4>
			<quad4 id="523">361,392,391,360</quad4>
			<quad4 id="524">392,423,422,391</quad4>
			<quad4 id="525">423,454,453,422</quad4>
			<quad4 id="526">454,485,484,453</quad4>
			<quad4 id="527">485,516,515,484</quad4>
			<quad4 id="528">516,547,546,515</quad4>
			<quad4 id="529">547,578,577,546</quad4>
			<quad4 id="530">578,609,608,577</quad4>
			<quad4 id="531">609,640,639,608</quad4>
<!-- ... 9 like lines cut -->
			<tri3 id="541">1,21,20</tri3>
			<quad4 id="542">21,52,51,20</quad4>
			<quad4 id="543">52,83,82,51</quad4>
			<quad4 id="544">83,114,113,82</quad4>
			<quad4 id="545">114,145,144,113</quad4>
			<quad4 id="546">145,176,175,144</quad4>
			<quad4 id="547">176,207,206,175</quad4>
			<quad4 id="548">207,238,237,206</quad4>
			<quad4 id="549">238,269,268,237</quad4>
			<quad4 id="550">269,300,299,268</quad4>
			<quad4 id="551">300,331,330,299</quad4>
			<quad4 id="552">331,362,361,330</quad4>
			<quad4 id="553">362,393,392,361</quad4>
			<quad4 id="554">393,424,423,392</quad4>
			<quad4 id="555">424,455,454,423</quad4>
			<quad4 id="556">455,486,485,454</quad4>
			<quad4 id="557">486,517,516,485</quad4>
			<quad4 id="558">517,548,547,516</quad4>
			<quad4 id="559">548,579,578,547</quad4>
			<quad4 id="560">579,610,609,578</quad4>
			<quad4 id="561">610,641,640,609</quad4>
<!-- ... 9 like lines cut -->
			<tri3 id="571">1,22,21</tri3>
			<quad4 id="572">22,53,52,21</quad4>
			<quad4 id="573">53,84,83,52</quad4>
			<quad4 id="574">84,115,114,83</quad4>
			<quad4 id="575">115,146,145,114</quad4>
			<quad4 id="576">146,177,176,145</quad4>
			<quad4 id="577">177,208,207,176</quad4>
			<quad4 id="578">208,239,238,207</quad4>
			<quad4 id="579">239,270,269,238</quad4>
			<quad4 id="580">270,301,300,269</quad4>
			<quad4 id="581">301,332,331,300</quad4>
			<quad4 id="582">332,363,362,331</quad4>
			<quad4 id="583">363,394,393,362</quad4>
			<quad4 id="584">394,425,424,393</quad4>
			<quad4 id="585">425,456,455,424</quad4>
			<quad4 id="586">456,487,486,455</quad4>
			<quad4 id="587">487,518,517,486</quad4>
			<quad4 id="588">518,549,548,517</quad4>
			<quad4 id="589">549,580,579,548</quad4>
			<quad4 id="590">580,611,610,579</quad4>
			<quad4 id="591">611,642,641,610</quad4>
<!-- ... 9 like lines cut -->
			<tri3 id="601">1,23,22</tri3>
			<quad4 id="602">23,54,53,22</quad4>
			<quad4 id="603">54,85,84,53</quad4>
			<quad4 id="604">85,116,115,84</quad4>
			<quad4 id="605">116,147,146,115</quad4>
			<quad4 id="606">147,178,177,146</quad4>
			<quad4 id="607">178,209,208,177</quad4>
			<quad4 id="608">209,240,239,208</quad4>
			<quad4 id="609">240,271,270,239</quad4>
			<quad4 id="610">271,302,301,270</quad4>
			<quad4 id="611">302,333,332,301</quad4>
			<quad4 id="612">333,364,363,332</quad4>
			<quad4 id="613">364,395,394,363</quad4>
			<quad4 id="614">395,426,425,394</quad4>
			<quad4 id="615">426,457,456,425</quad4>
			<quad4 id="616">457,488,487,456</quad4>
			<quad4 id="617">488,519,518,487</quad4>
			<quad4 id="618">519,550,549,518</quad4>
			<quad4 id="619">550,581,580,549</quad4>
			<quad4 id="620">581,612,611,580</quad4>
			<quad4 id="621">612,643,642,611</quad4>
<!-- ... 9 like lines cut -->
			<tri3 id="631">1,24,23</tri3>
			<quad4 id="632">24,55,54,23</quad4>
			<quad4 id="633">55,86,85,54</quad4>
			<quad4 id="634">86,117,116,85</quad4>
			<quad4 id="635">117,148,147,116</quad4>
			<quad4 id="636">148,179,178,147</quad4>
			<quad4 id="637">179,210,209,178</quad4>
			<quad4 id="638">210,241,240,209</quad4>
			<quad4 id="639">241,272,271,240</quad4>
			<quad4 id="640">272,303,302,271</quad4>
			<quad4 id="641">303,334,333,302</quad4>
			<quad4 id="642">334,365,364,333</quad4>
			<quad4 id="643">365,396,395,364</quad4>
			<quad4 id="644">396,427,426,395</quad4>
			<quad4 id="645">427,458,457,426</quad4>
			<quad4 id="646">458,489,488,457</quad4>
			<quad4 id="647">489,520,519,488</quad4>
			<quad4 id="648">520,551,550,519</quad4>
			<quad4 id="649">551,582,581,550</quad4>
			<quad4 id="650">582,613,612,581</quad4>
			<quad4 id="651">613,644,643,612</quad4>
<!-- ... 9 like lines cut -->
			<tri3 id="661">1,25,24</tri3>
			<quad4 id="662">25,56,55,24</quad4>
			<quad4 id="663">56,87,86,55</quad4>
			<quad4 id="664">87,118,117,86</quad4>
			<quad4 id="665">118,149,148,117</quad4>
			<quad4 id="666">149,180,179,148</quad4>
			<quad4 id="667">180,211,210,179</quad4>
			<quad4 id="668">211,242,241,210</quad4>
			<quad4 id="669">242,273,272,241</quad4>
			<quad4 id="670">273,304,303,272</quad4>
			<quad4 id="671">304,335,334,303</quad4>
			<quad4 id="672">335,366,365,334</quad4>
			<quad4 id="673">366,397,396,365</quad4>
			<quad4 id="674">397,428,427,396</quad4>
			<quad4 id="675">428,459,458,427</quad4>
			<quad4 id="676">459,490,489,458</quad4>
			<quad4 id="677">490,521,520,489</quad4>
			<quad4 id="678">521,552,551,520</quad4>
			<quad4 id="679">552,583,582,551</quad4>
			<quad4 id="680">583,614,613,582</quad4>
			<quad4 id="681">614,645,644,613</quad4>
<!-- ... 9 like lines cut -->
			<tri3 id="691">1,26,25</tri3>
			<quad4 id="692">26,57,56,25</quad4>
			<quad4 id="693">57,88,87,56</quad4>
			<quad4 id="694">88,119,118,87</quad4>
			<quad4 id="695">119,150,149,118</quad4>
			<quad4 id="696">150,181,180,149</quad4>
			<quad4 id="697">181,212,211,180</quad4>
			<quad4 id="698">212,243,242,211</quad4>
			<quad4 id="699">243,274,273,242</quad4>
			<quad4 id="700">274,305,304,273</quad4>
			<quad4 id="701">305,336,335,304</quad4>
			<quad4 id="702">336,367,366,335</quad4>
			<quad4 id="703">367,398,397,366</quad4>
			<quad4 id="704">398,429,428,397</quad4>
			<quad4 id="705">429,460,459,428</quad4>
			<quad4 id="706">460,491,490,459</quad4>
			<quad4 id="707">491,522,521,490</quad4>
			<quad4 id="708">522,553,552,521</quad4>
			<quad4 id="709">553,584,583,552</quad4>
			<quad4 id="710">584,615,614,583</quad4>
			<quad4 id="711">615,646,645,614</quad4>
<!-- ... 9 like lines cut -->
			<tri3 id="721">1,27,26</tri3>
			<quad4 id="722">27,58,57,26</quad4>
			<quad4 id="723">58,89,88,57</quad4>
			<quad4 id="724">89,120,119,88</quad4>
			<quad4 id="725">120,151,150,119</quad4>
			<quad4 id="726">151,182,181,150</quad4>
			<quad4 id="727">182,213,212,181</quad4>
			<quad4 id="728">213,244,243,212</quad4>
			<quad4 id="729">244,275,274,243</quad4>
			<quad4 id="730">275,306,305,274</quad4>
			<quad4 id="731">306,337,336,305</quad4>
			<quad4 id="732">337,368,367,336</quad4>
			<quad4 id="733">368,399,398,367</quad4>
			<quad4 id="734">399,430,429,398</quad4>
			<quad4 id="735">430,461,460,429</quad4>
			<quad4 id="736">461,492,491,460</quad4>
			<quad4 id="737">492,523,522,491</quad4>
			<quad4 id="738">523,554,553,522</quad4>
			<quad4 id="739">554,585,584,553</quad4>
			<quad4 id="740">585,616,615,584</quad4>
			<quad4 id="741">616,647,646,615</quad4>
<!-- ... 9 like lines cut -->
			<tri3 id="751">1,28,27</tri3>
			<quad4 id="752">28,59,58,27</quad4>
			<quad4 id="753">59,90,89,58</quad4>
			<quad4 id="754">90,121,120,89</quad4>
			<quad4 id="755">121,152,151,120</quad4>
			<quad4 id="756">152,183,182,151</quad4>
			<quad4 id="757">183,214,213,182</quad4>
			<quad4 id="758">214,245,244,213</quad4>
			<quad4 id="759">245,276,275,244</quad4>
			<quad4 id="760">276,307,306,275</quad4>
			<quad4 id="761">307,338,337,306</quad4>
			<quad4 id="762">338,369,368,337</quad4>
			<quad4 id="763">369,400,399,368</quad4>
			<quad4 id="764">400,431,430,399</quad4>
			<quad4 id="765">431,462,461,430</quad4>
			<quad4 id="766">462,493,492,461</quad4>
			<quad4 id="767">493,524,523,492</quad4>
			<quad4 id="768">524,555,554,523</quad4>
			<quad4 id="769">555,586,585,554</quad4>
			<quad4 id="770">586,617,616,585</quad4>
			<quad4 id="771">617,648,647,616</quad4>
<!-- ... 9 like lines cut -->
			<tri3 id="781">1,29,28</tri3>
			<quad4 id="782">29,60,59,28</quad4>
			<quad4 id="783">60,91,90,59</quad4>
			<quad4 id="784">91,122,121,90</quad4>
			<quad4 id="785">122,153,152,121</quad4>
			<quad4 id="786">153,184,183,152</quad4>
			<quad4 id="787">184,215,214,183</quad4>
			<quad4 id="788">215,246,245,214</quad4>
			<quad4 id="789">246,277,276,245</quad4>
			<quad4 id="790">277,308,307,276</quad4>
			<quad4 id="791">308,339,338,307</quad4>
			<quad4 id="792">339,370,369,338</quad4>
			<quad4 id="793">370,401,400,369</quad4>
			<quad4 id="794">401,432,431,400</quad4>
			<quad4 id="795">432,463,462,431</quad4>
			<quad4 id="796">463,494,493,462</quad4>
			<quad4 id="797">494,525,524,493</quad4>
			<quad4 id="798">525,556,555,524</quad4>
			<quad4 id="799">556,587,586,555</quad4>
			<quad4 id="800">587,618,617,586</quad4>
			<quad4 id="801">618,649,648,617</quad4>
<!-- ... 9 like lines cut -->
			<tri3 id="811">1,30,29</tri3>
			<quad4 id="812">30,61,60,29</quad4>
			<quad4 id="813">61,92,91,60</quad4>
			<quad4 id="814">92,123,122,91</quad4>
			<quad4 id="815">123,154,153,122</quad4>
			<quad4 id="816">154,185,184,153</quad4>
			<quad4 id="817">185,216,215,184</quad4>
			<quad4 id="818">216,247,246,215</quad4>
			<quad4 id="819">247,278,277,246</quad4>
			<quad4 id="820">278,309,308,277</quad4>
			<quad4 id="821">309,340,339,308</quad4>
			<quad4 id="822">340,371,370,339</quad4>
			<quad4 id="823">371,402,401,370</quad4>
			<quad4 id="824">402,433,432,401</quad4>
			<quad4 id="825">433,464,463,432</quad4>
			<quad4 id="826">464,495,494,463</quad4>
			<quad4 id="827">495,526,525,494</quad4>
			<quad4 id="828">526,557,556,525</quad4>
			<quad4 id="829">557,588,587,556</quad4>
			<quad4 id="830">588,619,618,587</quad4>
			<quad4 id="831">619,650,649,618</quad4>
<!-- ... 9 like lines cut -->
			<tri3 id="841">1,31,30</tri3>
			<quad4 id="842">31,62,61,30</quad4>
			<quad4 id="843">62,93,92,61</quad4>
			<quad4 id="844">93,124,123,92</quad4>
			<quad4 id="845">124,155,154,123</quad4>
			<quad4 id="846">155,186,185,154</quad4>
			<quad4 id="847">186,217,216,185</quad4>
			<quad4 id="848">217,248,247,216</quad4>
			<quad4 id="849">248,279,278,247</quad4>
			<quad4 id="850">279,310,309,278</quad4>
			<quad4 id="851">310,341,340,309</quad4>
			<quad4 id="852">341,372,371,340</quad4>
			<quad4 id="853">372,403,402,371</quad4>
			<quad4 id="854">403,434,433,402</quad4>
			<quad4 id="855">434,465,464,433</quad4>
			<quad4 id="856">465,496,495,464</quad4>
			<quad4 id="857">496,527,526,495</quad4>
			<quad4 id="858">527,558,557,526</quad4>
			<quad4 id="859">558,589,588,557</quad4>
			<quad4 id="860">589,620,619,588</quad4>
			<quad4 id="861">620,651,650,619</quad4>
<!-- ... 9 like lines cut -->
			<tri3 id="871">1,32,31</tri3>
			<quad4 id="872">32,63,62,31</quad4>
			<quad4 id="873">63,94,93,62</quad4>
			<quad4 id="874">94,125,124,93</quad4>
			<quad4 id="875">125,156,155,124</quad4>
			<quad4 id="876">156,187,186,155</quad4>
			<quad4 id="877">187,218,217,186</quad4>
			<quad4 id="878">218,249,248,217</quad4>
			<quad4 id="879">249,280,279,248</quad4>
			<quad4 id="880">280,311,310,279</quad4>
			<quad4 id="881">311,342,341,310</quad4>
			<quad4 id="882">342,373,372,341</quad4>
			<quad4 id="883">373,404,403,372</quad4>
			<quad4 id="884">404,435,434,403</quad4>
			<quad4 id="885">435,466,465,434</quad4>
			<quad4 id="886">466,497,496,465</quad4>
			<quad4 id="887">497,528,527,496</quad4>
			<quad4 id="888">528,559,558,527</quad4>
			<quad4 id="889">559,590,589,558</quad4>
			<quad4 id="890">590,621,620,589</quad4>
			<quad4 id="891">621,652,651,620</quad4>
<!-- ... 9 like lines cut -->
		</Surface>
		<Surface name="FixX">
			<quad4 id="1">932,963,32,1</quad4>
			<quad4 id="2">963,994,63,32</quad4>
			<quad4 id="3">994,1025,94,63</quad4>
			<quad4 id="4">1025,1056,125,94</quad4>
			<quad4 id="5">1056,1087,156,125</quad4>
			<quad4 id="6">1087,1118,187,156</quad4>
			<quad4 id="7">1118,1149,218,187</quad4>
			<quad4 id="8">1149,1180,249,218</quad4>
			<quad4 id="9">1180,1211,280,249</quad4>
			<quad4 id="10">1211,1242,311,280</quad4>
			<quad4 id="11">1242,1273,342,311</quad4>
			<quad4 id="12">1273,1304,373,342</quad4>
			<quad4 id="13">1304,1335,404,373</quad4>
			<quad4 id="14">1335,1366,435,404</quad4>
			<quad4 id="15">1366,1397,466,435</quad4>
			<quad4 id="16">1397,1428,497,466</quad4>
			<quad4 id="17">1428,1459,528,497</quad4>
			<quad4 id="18">1459,1490,559,528</quad4>
			<quad4 id="19">1490,1521,590,559</quad4>
			<quad4 id="20">1521,1552,621,590</quad4>
<!-- ... 880 like lines cut -->
		</Surface>
		<Surface name="FixY">
			<quad4 id="1">1,2,933,932</quad4>
			<quad4 id="2">2,33,964,933</quad4>
			<quad4 id="3">33,64,995,964</quad4>
			<quad4 id="4">64,95,1026,995</quad4>
			<quad4 id="5">95,126,1057,1026</quad4>
			<quad4 id="6">126,157,1088,1057</quad4>
			<quad4 id="7">157,188,1119,1088</quad4>
			<quad4 id="8">188,219,1150,1119</quad4>
			<quad4 id="9">219,250,1181,1150</quad4>
			<quad4 id="10">250,281,1212,1181</quad4>
			<quad4 id="11">281,312,1243,1212</quad4>
			<quad4 id="12">312,343,1274,1243</quad4>
			<quad4 id="13">343,374,1305,1274</quad4>
			<quad4 id="14">374,405,1336,1305</quad4>
			<quad4 id="15">405,436,1367,1336</quad4>
			<quad4 id="16">436,467,1398,1367</quad4>
			<quad4 id="17">467,498,1429,1398</quad4>
			<quad4 id="18">498,529,1460,1429</quad4>
			<quad4 id="19">529,560,1491,1460</quad4>
			<quad4 id="20">560,591,1522,1491</quad4>
<!-- ... 880 like lines cut -->
		</Surface>
		<Surface name="DispZ">
			<tri3 id="1">27931,27932,27933</tri3>
			<quad4 id="2">27932,27963,27964,27933</quad4>
			<quad4 id="3">27963,27994,27995,27964</quad4>
			<quad4 id="4">27994,28025,28026,27995</quad4>
			<quad4 id="5">28025,28056,28057,28026</quad4>
			<quad4 id="6">28056,28087,28088,28057</quad4>
			<quad4 id="7">28087,28118,28119,28088</quad4>
			<quad4 id="8">28118,28149,28150,28119</quad4>
			<quad4 id="9">28149,28180,28181,28150</quad4>
			<quad4 id="10">28180,28211,28212,28181</quad4>
			<quad4 id="11">28211,28242,28243,28212</quad4>
			<quad4 id="12">28242,28273,28274,28243</quad4>
			<quad4 id="13">28273,28304,28305,28274</quad4>
			<quad4 id="14">28304,28335,28336,28305</quad4>
			<quad4 id="15">28335,28366,28367,28336</quad4>
			<quad4 id="16">28366,28397,28398,28367</quad4>
			<quad4 id="17">28397,28428,28429,28398</quad4>
			<quad4 id="18">28428,28459,28460,28429</quad4>
			<quad4 id="19">28459,28490,28491,28460</quad4>
			<quad4 id="20">28490,28521,28522,28491</quad4>
			<quad4 id="21">28521,28552,28553,28522</quad4>
<!-- ... 9 like lines cut -->
			<tri3 id="31">27931,27933,27934</tri3>
			<quad4 id="32">27933,27964,27965,27934</quad4>
			<quad4 id="33">27964,27995,27996,27965</quad4>
			<quad4 id="34">27995,28026,28027,27996</quad4>
			<quad4 id="35">28026,28057,28058,28027</quad4>
			<quad4 id="36">28057,28088,28089,28058</quad4>
			<quad4 id="37">28088,28119,28120,28089</quad4>
			<quad4 id="38">28119,28150,28151,28120</quad4>
			<quad4 id="39">28150,28181,28182,28151</quad4>
			<quad4 id="40">28181,28212,28213,28182</quad4>
			<quad4 id="41">28212,28243,28244,28213</quad4>
			<quad4 id="42">28243,28274,28275,28244</quad4>
			<quad4 id="43">28274,28305,28306,28275</quad4>
			<quad4 id="44">28305,28336,28337,28306</quad4>
			<quad4 id="45">28336,28367,28368,28337</quad4>
			<quad4 id="46">28367,28398,28399,28368</quad4>
			<quad4 id="47">28398,28429,28430,28399</quad4>
			<quad4 id="48">28429,28460,28461,28430</quad4>
			<quad4 id="49">28460,28491,28492,28461</quad4>
			<quad4 id="50">28491,28522,28523,28492</quad4>
			<quad4 id="51">28522,28553,28554,28523</quad4>
<!-- ... 9 like lines cut -->
			<tri3 id="61">27931,27934,27935</tri3>
			<quad4 id="62">27934,27965,27966,27935</quad4>
			<quad4 id="63">27965,27996,27997,27966</quad4>
			<quad4 id="64">27996,28027,28028,27997</quad4>
			<quad4 id="65">28027,28058,28059,28028</quad4>
			<quad4 id="66">28058,28089,28090,28059</quad4>
			<quad4 id="67">28089,28120,28121,28090</quad4>
			<quad4 id="68">28120,28151,28152,28121</quad4>
			<quad4 id="69">28151,28182,28183,28152</quad4>
			<quad4 id="70">28182,28213,28214,28183</quad4>
			<quad4 id="71">28213,28244,28245,28214</quad4>
			<quad4 id="72">28244,28275,28276,28245</quad4>
			<quad4 id="73">28275,28306,28307,28276</quad4>
			<quad4 id="74">28306,28337,28338,28307</quad4>
			<quad4 id="75">28337,28368,28369,28338</quad4>
			<quad4 id="76">28368,28399,28400,28369</quad4>
			<quad4 id="77">28399,28430,28431,28400</quad4>
			<quad4 id="78">28430,28461,28462,28431</quad4>
			<quad4 id="79">28461,28492,28493,28462</quad4>
			<quad4 id="80">28492,28523,28524,28493</quad4>
			<quad4 id="81">28523,28554,28555,28524</quad4>
<!-- ... 9 like lines cut -->
			<tri3 id="91">27931,27935,27936</tri3>
			<quad4 id="92">27935,27966,27967,27936</quad4>
			<quad4 id="93">27966,27997,27998,27967</quad4>
			<quad4 id="94">27997,28028,28029,27998</quad4>
			<quad4 id="95">28028,28059,28060,28029</quad4>
			<quad4 id="96">28059,28090,28091,28060</quad4>
			<quad4 id="97">28090,28121,28122,28091</quad4>
			<quad4 id="98">28121,28152,28153,28122</quad4>
			<quad4 id="99">28152,28183,28184,28153</quad4>
			<quad4 id="100">28183,28214,28215,28184</quad4>
			<quad4 id="101">28214,28245,28246,28215</quad4>
			<quad4 id="102">28245,28276,28277,28246</quad4>
			<quad4 id="103">28276,28307,28308,28277</quad4>
			<quad4 id="104">28307,28338,28339,28308</quad4>
			<quad4 id="105">28338,28369,28370,28339</quad4>
			<quad4 id="106">28369,28400,28401,28370</quad4>
			<quad4 id="107">28400,28431,28432,28401</quad4>
			<quad4 id="108">28431,28462,28463,28432</quad4>
			<quad4 id="109">28462,28493,28494,28463</quad4>
			<quad4 id="110">28493,28524,28525,28494</quad4>
			<quad4 id="111">28524,28555,28556,28525</quad4>
<!-- ... 9 like lines cut -->
			<tri3 id="121">27931,27936,27937</tri3>
			<quad4 id="122">27936,27967,27968,27937</quad4>
			<quad4 id="123">27967,27998,27999,27968</quad4>
			<quad4 id="124">27998,28029,28030,27999</quad4>
			<quad4 id="125">28029,28060,28061,28030</quad4>
			<quad4 id="126">28060,28091,28092,28061</quad4>
			<quad4 id="127">28091,28122,28123,28092</quad4>
			<quad4 id="128">28122,28153,28154,28123</quad4>
			<quad4 id="129">28153,28184,28185,28154</quad4>
			<quad4 id="130">28184,28215,28216,28185</quad4>
			<quad4 id="131">28215,28246,28247,28216</quad4>
			<quad4 id="132">28246,28277,28278,28247</quad4>
			<quad4 id="133">28277,28308,28309,28278</quad4>
			<quad4 id="134">28308,28339,28340,28309</quad4>
			<quad4 id="135">28339,28370,28371,28340</quad4>
			<quad4 id="136">28370,28401,28402,28371</quad4>
			<quad4 id="137">28401,28432,28433,28402</quad4>
			<quad4 id="138">28432,28463,28464,28433</quad4>
			<quad4 id="139">28463,28494,28495,28464</quad4>
			<quad4 id="140">28494,28525,28526,28495</quad4>
			<quad4 id="141">28525,28556,28557,28526</quad4>
<!-- ... 9 like lines cut -->
			<tri3 id="151">27931,27937,27938</tri3>
			<quad4 id="152">27937,27968,27969,27938</quad4>
			<quad4 id="153">27968,27999,28000,27969</quad4>
			<quad4 id="154">27999,28030,28031,28000</quad4>
			<quad4 id="155">28030,28061,28062,28031</quad4>
			<quad4 id="156">28061,28092,28093,28062</quad4>
			<quad4 id="157">28092,28123,28124,28093</quad4>
			<quad4 id="158">28123,28154,28155,28124</quad4>
			<quad4 id="159">28154,28185,28186,28155</quad4>
			<quad4 id="160">28185,28216,28217,28186</quad4>
			<quad4 id="161">28216,28247,28248,28217</quad4>
			<quad4 id="162">28247,28278,28279,28248</quad4>
			<quad4 id="163">28278,28309,28310,28279</quad4>
			<quad4 id="164">28309,28340,28341,28310</quad4>
			<quad4 id="165">28340,28371,28372,28341</quad4>
			<quad4 id="166">28371,28402,28403,28372</quad4>
			<quad4 id="167">28402,28433,28434,28403</quad4>
			<quad4 id="168">28433,28464,28465,28434</quad4>
			<quad4 id="169">28464,28495,28496,28465</quad4>
			<quad4 id="170">28495,28526,28527,28496</quad4>
			<quad4 id="171">28526,28557,28558,28527</quad4>
<!-- ... 9 like lines cut -->
			<tri3 id="181">27931,27938,27939</tri3>
			<quad4 id="182">27938,27969,27970,27939</quad4>
			<quad4 id="183">27969,28000,28001,27970</quad4>
			<quad4 id="184">28000,28031,28032,28001</quad4>
			<quad4 id="185">28031,28062,28063,28032</quad4>
			<quad4 id="186">28062,28093,28094,28063</quad4>
			<quad4 id="187">28093,28124,28125,28094</quad4>
			<quad4 id="188">28124,28155,28156,28125</quad4>
			<quad4 id="189">28155,28186,28187,28156</quad4>
			<quad4 id="190">28186,28217,28218,28187</quad4>
			<quad4 id="191">28217,28248,28249,28218</quad4>
			<quad4 id="192">28248,28279,28280,28249</quad4>
			<quad4 id="193">28279,28310,28311,28280</quad4>
			<quad4 id="194">28310,28341,28342,28311</quad4>
			<quad4 id="195">28341,28372,28373,28342</quad4>
			<quad4 id="196">28372,28403,28404,28373</quad4>
			<quad4 id="197">28403,28434,28435,28404</quad4>
			<quad4 id="198">28434,28465,28466,28435</quad4>
			<quad4 id="199">28465,28496,28497,28466</quad4>
			<quad4 id="200">28496,28527,28528,28497</quad4>
			<quad4 id="201">28527,28558,28559,28528</quad4>
<!-- ... 9 like lines cut -->
			<tri3 id="211">27931,27939,27940</tri3>
			<quad4 id="212">27939,27970,27971,27940</quad4>
			<quad4 id="213">27970,28001,28002,27971</quad4>
			<quad4 id="214">28001,28032,28033,28002</quad4>
			<quad4 id="215">28032,28063,28064,28033</quad4>
			<quad4 id="216">28063,28094,28095,28064</quad4>
			<quad4 id="217">28094,28125,28126,28095</quad4>
			<quad4 id="218">28125,28156,28157,28126</quad4>
			<quad4 id="219">28156,28187,28188,28157</quad4>
			<quad4 id="220">28187,28218,28219,28188</quad4>
			<quad4 id="221">28218,28249,28250,28219</quad4>
			<quad4 id="222">28249,28280,28281,28250</quad4>
			<quad4 id="223">28280,28311,28312,28281</quad4>
			<quad4 id="224">28311,28342,28343,28312</quad4>
			<quad4 id="225">28342,28373,28374,28343</quad4>
			<quad4 id="226">28373,28404,28405,28374</quad4>
			<quad4 id="227">28404,28435,28436,28405</quad4>
			<quad4 id="228">28435,28466,28467,28436</quad4>
			<quad4 id="229">28466,28497,28498,28467</quad4>
			<quad4 id="230">28497,28528,28529,28498</quad4>
			<quad4 id="231">28528,28559,28560,28529</quad4>
<!-- ... 9 like lines cut -->
			<tri3 id="241">27931,27940,27941</tri3>
			<quad4 id="242">27940,27971,27972,27941</quad4>
			<quad4 id="243">27971,28002,28003,27972</quad4>
			<quad4 id="244">28002,28033,28034,28003</quad4>
			<quad4 id="245">28033,28064,28065,28034</quad4>
			<quad4 id="246">28064,28095,28096,28065</quad4>
			<quad4 id="247">28095,28126,28127,28096</quad4>
			<quad4 id="248">28126,28157,28158,28127</quad4>
			<quad4 id="249">28157,28188,28189,28158</quad4>
			<quad4 id="250">28188,28219,28220,28189</quad4>
			<quad4 id="251">28219,28250,28251,28220</quad4>
			<quad4 id="252">28250,28281,28282,28251</quad4>
			<quad4 id="253">28281,28312,28313,28282</quad4>
			<quad4 id="254">28312,28343,28344,28313</quad4>
			<quad4 id="255">28343,28374,28375,28344</quad4>
			<quad4 id="256">28374,28405,28406,28375</quad4>
			<quad4 id="257">28405,28436,28437,28406</quad4>
			<quad4 id="258">28436,28467,28468,28437</quad4>
			<quad4 id="259">28467,28498,28499,28468</quad4>
			<quad4 id="260">28498,28529,28530,28499</quad4>
			<quad4 id="261">28529,28560,28561,28530</quad4>
<!-- ... 9 like lines cut -->
			<tri3 id="271">27931,27941,27942</tri3>
			<quad4 id="272">27941,27972,27973,27942</quad4>
			<quad4 id="273">27972,28003,28004,27973</quad4>
			<quad4 id="274">28003,28034,28035,28004</quad4>
			<quad4 id="275">28034,28065,28066,28035</quad4>
			<quad4 id="276">28065,28096,28097,28066</quad4>
			<quad4 id="277">28096,28127,28128,28097</quad4>
			<quad4 id="278">28127,28158,28159,28128</quad4>
			<quad4 id="279">28158,28189,28190,28159</quad4>
			<quad4 id="280">28189,28220,28221,28190</quad4>
			<quad4 id="281">28220,28251,28252,28221</quad4>
			<quad4 id="282">28251,28282,28283,28252</quad4>
			<quad4 id="283">28282,28313,28314,28283</quad4>
			<quad4 id="284">28313,28344,28345,28314</quad4>
			<quad4 id="285">28344,28375,28376,28345</quad4>
			<quad4 id="286">28375,28406,28407,28376</quad4>
			<quad4 id="287">28406,28437,28438,28407</quad4>
			<quad4 id="288">28437,28468,28469,28438</quad4>
			<quad4 id="289">28468,28499,28500,28469</quad4>
			<quad4 id="290">28499,28530,28531,28500</quad4>
			<quad4 id="291">28530,28561,28562,28531</quad4>
<!-- ... 9 like lines cut -->
			<tri3 id="301">27931,27942,27943</tri3>
			<quad4 id="302">27942,27973,27974,27943</quad4>
			<quad4 id="303">27973,28004,28005,27974</quad4>
			<quad4 id="304">28004,28035,28036,28005</quad4>
			<quad4 id="305">28035,28066,28067,28036</quad4>
			<quad4 id="306">28066,28097,28098,28067</quad4>
			<quad4 id="307">28097,28128,28129,28098</quad4>
			<quad4 id="308">28128,28159,28160,28129</quad4>
			<quad4 id="309">28159,28190,28191,28160</quad4>
			<quad4 id="310">28190,28221,28222,28191</quad4>
			<quad4 id="311">28221,28252,28253,28222</quad4>
			<quad4 id="312">28252,28283,28284,28253</quad4>
			<quad4 id="313">28283,28314,28315,28284</quad4>
			<quad4 id="314">28314,28345,28346,28315</quad4>
			<quad4 id="315">28345,28376,28377,28346</quad4>
			<quad4 id="316">28376,28407,28408,28377</quad4>
			<quad4 id="317">28407,28438,28439,28408</quad4>
			<quad4 id="318">28438,28469,28470,28439</quad4>
			<quad4 id="319">28469,28500,28501,28470</quad4>
			<quad4 id="320">28500,28531,28532,28501</quad4>
			<quad4 id="321">28531,28562,28563,28532</quad4>
<!-- ... 9 like lines cut -->
			<tri3 id="331">27931,27943,27944</tri3>
			<quad4 id="332">27943,27974,27975,27944</quad4>
			<quad4 id="333">27974,28005,28006,27975</quad4>
			<quad4 id="334">28005,28036,28037,28006</quad4>
			<quad4 id="335">28036,28067,28068,28037</quad4>
			<quad4 id="336">28067,28098,28099,28068</quad4>
			<quad4 id="337">28098,28129,28130,28099</quad4>
			<quad4 id="338">28129,28160,28161,28130</quad4>
			<quad4 id="339">28160,28191,28192,28161</quad4>
			<quad4 id="340">28191,28222,28223,28192</quad4>
			<quad4 id="341">28222,28253,28254,28223</quad4>
			<quad4 id="342">28253,28284,28285,28254</quad4>
			<quad4 id="343">28284,28315,28316,28285</quad4>
			<quad4 id="344">28315,28346,28347,28316</quad4>
			<quad4 id="345">28346,28377,28378,28347</quad4>
			<quad4 id="346">28377,28408,28409,28378</quad4>
			<quad4 id="347">28408,28439,28440,28409</quad4>
			<quad4 id="348">28439,28470,28471,28440</quad4>
			<quad4 id="349">28470,28501,28502,28471</quad4>
			<quad4 id="350">28501,28532,28533,28502</quad4>
			<quad4 id="351">28532,28563,28564,28533</quad4>
<!-- ... 9 like lines cut -->
			<tri3 id="361">27931,27944,27945</tri3>
			<quad4 id="362">27944,27975,27976,27945</quad4>
			<quad4 id="363">27975,28006,28007,27976</quad4>
			<quad4 id="364">28006,28037,28038,28007</quad4>
			<quad4 id="365">28037,28068,28069,28038</quad4>
			<quad4 id="366">28068,28099,28100,28069</quad4>
			<quad4 id="367">28099,28130,28131,28100</quad4>
			<quad4 id="368">28130,28161,28162,28131</quad4>
			<quad4 id="369">28161,28192,28193,28162</quad4>
			<quad4 id="370">28192,28223,28224,28193</quad4>
			<quad4 id="371">28223,28254,28255,28224</quad4>
			<quad4 id="372">28254,28285,28286,28255</quad4>
			<quad4 id="373">28285,28316,28317,28286</quad4>
			<quad4 id="374">28316,28347,28348,28317</quad4>
			<quad4 id="375">28347,28378,28379,28348</quad4>
			<quad4 id="376">28378,28409,28410,28379</quad4>
			<quad4 id="377">28409,28440,28441,28410</quad4>
			<quad4 id="378">28440,28471,28472,28441</quad4>
			<quad4 id="379">28471,28502,28503,28472</quad4>
			<quad4 id="380">28502,28533,28534,28503</quad4>
			<quad4 id="381">28533,28564,28565,28534</quad4>
<!-- ... 9 like lines cut -->
			<tri3 id="391">27931,27945,27946</tri3>
			<quad4 id="392">27945,27976,27977,27946</quad4>
			<quad4 id="393">27976,28007,28008,27977</quad4>
			<quad4 id="394">28007,28038,28039,28008</quad4>
			<quad4 id="395">28038,28069,28070,28039</quad4>
			<quad4 id="396">28069,28100,28101,28070</quad4>
			<quad4 id="397">28100,28131,28132,28101</quad4>
			<quad4 id="398">28131,28162,28163,28132</quad4>
			<quad4 id="399">28162,28193,28194,28163</quad4>
			<quad4 id="400">28193,28224,28225,28194</quad4>
			<quad4 id="401">28224,28255,28256,28225</quad4>
			<quad4 id="402">28255,28286,28287,28256</quad4>
			<quad4 id="403">28286,28317,28318,28287</quad4>
			<quad4 id="404">28317,28348,28349,28318</quad4>
			<quad4 id="405">28348,28379,28380,28349</quad4>
			<quad4 id="406">28379,28410,28411,28380</quad4>
			<quad4 id="407">28410,28441,28442,28411</quad4>
			<quad4 id="408">28441,28472,28473,28442</quad4>
			<quad4 id="409">28472,28503,28504,28473</quad4>
			<quad4 id="410">28503,28534,28535,28504</quad4>
			<quad4 id="411">28534,28565,28566,28535</quad4>
<!-- ... 9 like lines cut -->
			<tri3 id="421">27931,27946,27947</tri3>
			<quad4 id="422">27946,27977,27978,27947</quad4>
			<quad4 id="423">27977,28008,28009,27978</quad4>
			<quad4 id="424">28008,28039,28040,28009</quad4>
			<quad4 id="425">28039,28070,28071,28040</quad4>
			<quad4 id="426">28070,28101,28102,28071</quad4>
			<quad4 id="427">28101,28132,28133,28102</quad4>
			<quad4 id="428">28132,28163,28164,28133</quad4>
			<quad4 id="429">28163,28194,28195,28164</quad4>
			<quad4 id="430">28194,28225,28226,28195</quad4>
			<quad4 id="431">28225,28256,28257,28226</quad4>
			<quad4 id="432">28256,28287,28288,28257</quad4>
			<quad4 id="433">28287,28318,28319,28288</quad4>
			<quad4 id="434">28318,28349,28350,28319</quad4>
			<quad4 id="435">28349,28380,28381,28350</quad4>
			<quad4 id="436">28380,28411,28412,28381</quad4>
			<quad4 id="437">28411,28442,28443,28412</quad4>
			<quad4 id="438">28442,28473,28474,28443</quad4>
			<quad4 id="439">28473,28504,28505,28474</quad4>
			<quad4 id="440">28504,28535,28536,28505</quad4>
			<quad4 id="441">28535,28566,28567,28536</quad4>
<!-- ... 9 like lines cut -->
			<tri3 id="451">27931,27947,27948</tri3>
			<quad4 id="452">27947,27978,27979,27948</quad4>
			<quad4 id="453">27978,28009,28010,27979</quad4>
			<quad4 id="454">28009,28040,28041,28010</quad4>
			<quad4 id="455">28040,28071,28072,28041</quad4>
			<quad4 id="456">28071,28102,28103,28072</quad4>
			<quad4 id="457">28102,28133,28134,28103</quad4>
			<quad4 id="458">28133,28164,28165,28134</quad4>
			<quad4 id="459">28164,28195,28196,28165</quad4>
			<quad4 id="460">28195,28226,28227,28196</quad4>
			<quad4 id="461">28226,28257,28258,28227</quad4>
			<quad4 id="462">28257,28288,28289,28258</quad4>
			<quad4 id="463">28288,28319,28320,28289</quad4>
			<quad4 id="464">28319,28350,28351,28320</quad4>
			<quad4 id="465">28350,28381,28382,28351</quad4>
			<quad4 id="466">28381,28412,28413,28382</quad4>
			<quad4 id="467">28412,28443,28444,28413</quad4>
			<quad4 id="468">28443,28474,28475,28444</quad4>
			<quad4 id="469">28474,28505,28506,28475</quad4>
			<quad4 id="470">28505,28536,28537,28506</quad4>
			<quad4 id="471">28536,28567,28568,28537</quad4>
<!-- ... 9 like lines cut -->
			<tri3 id="481">27931,27948,27949</tri3>
			<quad4 id="482">27948,27979,27980,27949</quad4>
			<quad4 id="483">27979,28010,28011,27980</quad4>
			<quad4 id="484">28010,28041,28042,28011</quad4>
			<quad4 id="485">28041,28072,28073,28042</quad4>
			<quad4 id="486">28072,28103,28104,28073</quad4>
			<quad4 id="487">28103,28134,28135,28104</quad4>
			<quad4 id="488">28134,28165,28166,28135</quad4>
			<quad4 id="489">28165,28196,28197,28166</quad4>
			<quad4 id="490">28196,28227,28228,28197</quad4>
			<quad4 id="491">28227,28258,28259,28228</quad4>
			<quad4 id="492">28258,28289,28290,28259</quad4>
			<quad4 id="493">28289,28320,28321,28290</quad4>
			<quad4 id="494">28320,28351,28352,28321</quad4>
			<quad4 id="495">28351,28382,28383,28352</quad4>
			<quad4 id="496">28382,28413,28414,28383</quad4>
			<quad4 id="497">28413,28444,28445,28414</quad4>
			<quad4 id="498">28444,28475,28476,28445</quad4>
			<quad4 id="499">28475,28506,28507,28476</quad4>
			<quad4 id="500">28506,28537,28538,28507</quad4>
			<quad4 id="501">28537,28568,28569,28538</quad4>
<!-- ... 9 like lines cut -->
			<tri3 id="511">27931,27949,27950</tri3>
			<quad4 id="512">27949,27980,27981,27950</quad4>
			<quad4 id="513">27980,28011,28012,27981</quad4>
			<quad4 id="514">28011,28042,28043,28012</quad4>
			<quad4 id="515">28042,28073,28074,28043</quad4>
			<quad4 id="516">28073,28104,28105,28074</quad4>
			<quad4 id="517">28104,28135,28136,28105</quad4>
			<quad4 id="518">28135,28166,28167,28136</quad4>
			<quad4 id="519">28166,28197,28198,28167</quad4>
			<quad4 id="520">28197,28228,28229,28198</quad4>
			<quad4 id="521">28228,28259,28260,28229</quad4>
			<quad4 id="522">28259,28290,28291,28260</quad4>
			<quad4 id="523">28290,28321,28322,28291</quad4>
			<quad4 id="524">28321,28352,28353,28322</quad4>
			<quad4 id="525">28352,28383,28384,28353</quad4>
			<quad4 id="526">28383,28414,28415,28384</quad4>
			<quad4 id="527">28414,28445,28446,28415</quad4>
			<quad4 id="528">28445,28476,28477,28446</quad4>
			<quad4 id="529">28476,28507,28508,28477</quad4>
			<quad4 id="530">28507,28538,28539,28508</quad4>
			<quad4 id="531">28538,28569,28570,28539</quad4>
<!-- ... 9 like lines cut -->
			<tri3 id="541">27931,27950,27951</tri3>
			<quad4 id="542">27950,27981,27982,27951</quad4>
			<quad4 id="543">27981,28012,28013,27982</quad4>
			<quad4 id="544">28012,28043,28044,28013</quad4>
			<quad4 id="545">28043,28074,28075,28044</quad4>
			<quad4 id="546">28074,28105,28106,28075</quad4>
			<quad4 id="547">28105,28136,28137,28106</quad4>
			<quad4 id="548">28136,28167,28168,28137</quad4>
			<quad4 id="549">28167,28198,28199,28168</quad4>
			<quad4 id="550">28198,28229,28230,28199</quad4>
			<quad4 id="551">28229,28260,28261,28230</quad4>
			<quad4 id="552">28260,28291,28292,28261</quad4>
			<quad4 id="553">28291,28322,28323,28292</quad4>
			<quad4 id="554">28322,28353,28354,28323</quad4>
			<quad4 id="555">28353,28384,28385,28354</quad4>
			<quad4 id="556">28384,28415,28416,28385</quad4>
			<quad4 id="557">28415,28446,28447,28416</quad4>
			<quad4 id="558">28446,28477,28478,28447</quad4>
			<quad4 id="559">28477,28508,28509,28478</quad4>
			<quad4 id="560">28508,28539,28540,28509</quad4>
			<quad4 id="561">28539,28570,28571,28540</quad4>
<!-- ... 9 like lines cut -->
			<tri3 id="571">27931,27951,27952</tri3>
			<quad4 id="572">27951,27982,27983,27952</quad4>
			<quad4 id="573">27982,28013,28014,27983</quad4>
			<quad4 id="574">28013,28044,28045,28014</quad4>
			<quad4 id="575">28044,28075,28076,28045</quad4>
			<quad4 id="576">28075,28106,28107,28076</quad4>
			<quad4 id="577">28106,28137,28138,28107</quad4>
			<quad4 id="578">28137,28168,28169,28138</quad4>
			<quad4 id="579">28168,28199,28200,28169</quad4>
			<quad4 id="580">28199,28230,28231,28200</quad4>
			<quad4 id="581">28230,28261,28262,28231</quad4>
			<quad4 id="582">28261,28292,28293,28262</quad4>
			<quad4 id="583">28292,28323,28324,28293</quad4>
			<quad4 id="584">28323,28354,28355,28324</quad4>
			<quad4 id="585">28354,28385,28386,28355</quad4>
			<quad4 id="586">28385,28416,28417,28386</quad4>
			<quad4 id="587">28416,28447,28448,28417</quad4>
			<quad4 id="588">28447,28478,28479,28448</quad4>
			<quad4 id="589">28478,28509,28510,28479</quad4>
			<quad4 id="590">28509,28540,28541,28510</quad4>
			<quad4 id="591">28540,28571,28572,28541</quad4>
<!-- ... 9 like lines cut -->
			<tri3 id="601">27931,27952,27953</tri3>
			<quad4 id="602">27952,27983,27984,27953</quad4>
			<quad4 id="603">27983,28014,28015,27984</quad4>
			<quad4 id="604">28014,28045,28046,28015</quad4>
			<quad4 id="605">28045,28076,28077,28046</quad4>
			<quad4 id="606">28076,28107,28108,28077</quad4>
			<quad4 id="607">28107,28138,28139,28108</quad4>
			<quad4 id="608">28138,28169,28170,28139</quad4>
			<quad4 id="609">28169,28200,28201,28170</quad4>
			<quad4 id="610">28200,28231,28232,28201</quad4>
			<quad4 id="611">28231,28262,28263,28232</quad4>
			<quad4 id="612">28262,28293,28294,28263</quad4>
			<quad4 id="613">28293,28324,28325,28294</quad4>
			<quad4 id="614">28324,28355,28356,28325</quad4>
			<quad4 id="615">28355,28386,28387,28356</quad4>
			<quad4 id="616">28386,28417,28418,28387</quad4>
			<quad4 id="617">28417,28448,28449,28418</quad4>
			<quad4 id="618">28448,28479,28480,28449</quad4>
			<quad4 id="619">28479,28510,28511,28480</quad4>
			<quad4 id="620">28510,28541,28542,28511</quad4>
			<quad4 id="621">28541,28572,28573,28542</quad4>
<!-- ... 9 like lines cut -->
			<tri3 id="631">27931,27953,27954</tri3>
			<quad4 id="632">27953,27984,27985,27954</quad4>
			<quad4 id="633">27984,28015,28016,27985</quad4>
			<quad4 id="634">28015,28046,28047,28016</quad4>
			<quad4 id="635">28046,28077,28078,28047</quad4>
			<quad4 id="636">28077,28108,28109,28078</quad4>
			<quad4 id="637">28108,28139,28140,28109</quad4>
			<quad4 id="638">28139,28170,28171,28140</quad4>
			<quad4 id="639">28170,28201,28202,28171</quad4>
			<quad4 id="640">28201,28232,28233,28202</quad4>
			<quad4 id="641">28232,28263,28264,28233</quad4>
			<quad4 id="642">28263,28294,28295,28264</quad4>
			<quad4 id="643">28294,28325,28326,28295</quad4>
			<quad4 id="644">28325,28356,28357,28326</quad4>
			<quad4 id="645">28356,28387,28388,28357</quad4>
			<quad4 id="646">28387,28418,28419,28388</quad4>
			<quad4 id="647">28418,28449,28450,28419</quad4>
			<quad4 id="648">28449,28480,28481,28450</quad4>
			<quad4 id="649">28480,28511,28512,28481</quad4>
			<quad4 id="650">28511,28542,28543,28512</quad4>
			<quad4 id="651">28542,28573,28574,28543</quad4>
<!-- ... 9 like lines cut -->
			<tri3 id="661">27931,27954,27955</tri3>
			<quad4 id="662">27954,27985,27986,27955</quad4>
			<quad4 id="663">27985,28016,28017,27986</quad4>
			<quad4 id="664">28016,28047,28048,28017</quad4>
			<quad4 id="665">28047,28078,28079,28048</quad4>
			<quad4 id="666">28078,28109,28110,28079</quad4>
			<quad4 id="667">28109,28140,28141,28110</quad4>
			<quad4 id="668">28140,28171,28172,28141</quad4>
			<quad4 id="669">28171,28202,28203,28172</quad4>
			<quad4 id="670">28202,28233,28234,28203</quad4>
			<quad4 id="671">28233,28264,28265,28234</quad4>
			<quad4 id="672">28264,28295,28296,28265</quad4>
			<quad4 id="673">28295,28326,28327,28296</quad4>
			<quad4 id="674">28326,28357,28358,28327</quad4>
			<quad4 id="675">28357,28388,28389,28358</quad4>
			<quad4 id="676">28388,28419,28420,28389</quad4>
			<quad4 id="677">28419,28450,28451,28420</quad4>
			<quad4 id="678">28450,28481,28482,28451</quad4>
			<quad4 id="679">28481,28512,28513,28482</quad4>
			<quad4 id="680">28512,28543,28544,28513</quad4>
			<quad4 id="681">28543,28574,28575,28544</quad4>
<!-- ... 9 like lines cut -->
			<tri3 id="691">27931,27955,27956</tri3>
			<quad4 id="692">27955,27986,27987,27956</quad4>
			<quad4 id="693">27986,28017,28018,27987</quad4>
			<quad4 id="694">28017,28048,28049,28018</quad4>
			<quad4 id="695">28048,28079,28080,28049</quad4>
			<quad4 id="696">28079,28110,28111,28080</quad4>
			<quad4 id="697">28110,28141,28142,28111</quad4>
			<quad4 id="698">28141,28172,28173,28142</quad4>
			<quad4 id="699">28172,28203,28204,28173</quad4>
			<quad4 id="700">28203,28234,28235,28204</quad4>
			<quad4 id="701">28234,28265,28266,28235</quad4>
			<quad4 id="702">28265,28296,28297,28266</quad4>
			<quad4 id="703">28296,28327,28328,28297</quad4>
			<quad4 id="704">28327,28358,28359,28328</quad4>
			<quad4 id="705">28358,28389,28390,28359</quad4>
			<quad4 id="706">28389,28420,28421,28390</quad4>
			<quad4 id="707">28420,28451,28452,28421</quad4>
			<quad4 id="708">28451,28482,28483,28452</quad4>
			<quad4 id="709">28482,28513,28514,28483</quad4>
			<quad4 id="710">28513,28544,28545,28514</quad4>
			<quad4 id="711">28544,28575,28576,28545</quad4>
<!-- ... 9 like lines cut -->
			<tri3 id="721">27931,27956,27957</tri3>
			<quad4 id="722">27956,27987,27988,27957</quad4>
			<quad4 id="723">27987,28018,28019,27988</quad4>
			<quad4 id="724">28018,28049,28050,28019</quad4>
			<quad4 id="725">28049,28080,28081,28050</quad4>
			<quad4 id="726">28080,28111,28112,28081</quad4>
			<quad4 id="727">28111,28142,28143,28112</quad4>
			<quad4 id="728">28142,28173,28174,28143</quad4>
			<quad4 id="729">28173,28204,28205,28174</quad4>
			<quad4 id="730">28204,28235,28236,28205</quad4>
			<quad4 id="731">28235,28266,28267,28236</quad4>
			<quad4 id="732">28266,28297,28298,28267</quad4>
			<quad4 id="733">28297,28328,28329,28298</quad4>
			<quad4 id="734">28328,28359,28360,28329</quad4>
			<quad4 id="735">28359,28390,28391,28360</quad4>
			<quad4 id="736">28390,28421,28422,28391</quad4>
			<quad4 id="737">28421,28452,28453,28422</quad4>
			<quad4 id="738">28452,28483,28484,28453</quad4>
			<quad4 id="739">28483,28514,28515,28484</quad4>
			<quad4 id="740">28514,28545,28546,28515</quad4>
			<quad4 id="741">28545,28576,28577,28546</quad4>
<!-- ... 9 like lines cut -->
			<tri3 id="751">27931,27957,27958</tri3>
			<quad4 id="752">27957,27988,27989,27958</quad4>
			<quad4 id="753">27988,28019,28020,27989</quad4>
			<quad4 id="754">28019,28050,28051,28020</quad4>
			<quad4 id="755">28050,28081,28082,28051</quad4>
			<quad4 id="756">28081,28112,28113,28082</quad4>
			<quad4 id="757">28112,28143,28144,28113</quad4>
			<quad4 id="758">28143,28174,28175,28144</quad4>
			<quad4 id="759">28174,28205,28206,28175</quad4>
			<quad4 id="760">28205,28236,28237,28206</quad4>
			<quad4 id="761">28236,28267,28268,28237</quad4>
			<quad4 id="762">28267,28298,28299,28268</quad4>
			<quad4 id="763">28298,28329,28330,28299</quad4>
			<quad4 id="764">28329,28360,28361,28330</quad4>
			<quad4 id="765">28360,28391,28392,28361</quad4>
			<quad4 id="766">28391,28422,28423,28392</quad4>
			<quad4 id="767">28422,28453,28454,28423</quad4>
			<quad4 id="768">28453,28484,28485,28454</quad4>
			<quad4 id="769">28484,28515,28516,28485</quad4>
			<quad4 id="770">28515,28546,28547,28516</quad4>
			<quad4 id="771">28546,28577,28578,28547</quad4>
<!-- ... 9 like lines cut -->
			<tri3 id="781">27931,27958,27959</tri3>
			<quad4 id="782">27958,27989,27990,27959</quad4>
			<quad4 id="783">27989,28020,28021,27990</quad4>
			<quad4 id="784">28020,28051,28052,28021</quad4>
			<quad4 id="785">28051,28082,28083,28052</quad4>
			<quad4 id="786">28082,28113,28114,28083</quad4>
			<quad4 id="787">28113,28144,28145,28114</quad4>
			<quad4 id="788">28144,28175,28176,28145</quad4>
			<quad4 id="789">28175,28206,28207,28176</quad4>
			<quad4 id="790">28206,28237,28238,28207</quad4>
			<quad4 id="791">28237,28268,28269,28238</quad4>
			<quad4 id="792">28268,28299,28300,28269</quad4>
			<quad4 id="793">28299,28330,28331,28300</quad4>
			<quad4 id="794">28330,28361,28362,28331</quad4>
			<quad4 id="795">28361,28392,28393,28362</quad4>
			<quad4 id="796">28392,28423,28424,28393</quad4>
			<quad4 id="797">28423,28454,28455,28424</quad4>
			<quad4 id="798">28454,28485,28486,28455</quad4>
			<quad4 id="799">28485,28516,28517,28486</quad4>
			<quad4 id="800">28516,28547,28548,28517</quad4>
			<quad4 id="801">28547,28578,28579,28548</quad4>
<!-- ... 9 like lines cut -->
			<tri3 id="811">27931,27959,27960</tri3>
			<quad4 id="812">27959,27990,27991,27960</quad4>
			<quad4 id="813">27990,28021,28022,27991</quad4>
			<quad4 id="814">28021,28052,28053,28022</quad4>
			<quad4 id="815">28052,28083,28084,28053</quad4>
			<quad4 id="816">28083,28114,28115,28084</quad4>
			<quad4 id="817">28114,28145,28146,28115</quad4>
			<quad4 id="818">28145,28176,28177,28146</quad4>
			<quad4 id="819">28176,28207,28208,28177</quad4>
			<quad4 id="820">28207,28238,28239,28208</quad4>
			<quad4 id="821">28238,28269,28270,28239</quad4>
			<quad4 id="822">28269,28300,28301,28270</quad4>
			<quad4 id="823">28300,28331,28332,28301</quad4>
			<quad4 id="824">28331,28362,28363,28332</quad4>
			<quad4 id="825">28362,28393,28394,28363</quad4>
			<quad4 id="826">28393,28424,28425,28394</quad4>
			<quad4 id="827">28424,28455,28456,28425</quad4>
			<quad4 id="828">28455,28486,28487,28456</quad4>
			<quad4 id="829">28486,28517,28518,28487</quad4>
			<quad4 id="830">28517,28548,28549,28518</quad4>
			<quad4 id="831">28548,28579,28580,28549</quad4>
<!-- ... 9 like lines cut -->
			<tri3 id="841">27931,27960,27961</tri3>
			<quad4 id="842">27960,27991,27992,27961</quad4>
			<quad4 id="843">27991,28022,28023,27992</quad4>
			<quad4 id="844">28022,28053,28054,28023</quad4>
			<quad4 id="845">28053,28084,28085,28054</quad4>
			<quad4 id="846">28084,28115,28116,28085</quad4>
			<quad4 id="847">28115,28146,28147,28116</quad4>
			<quad4 id="848">28146,28177,28178,28147</quad4>
			<quad4 id="849">28177,28208,28209,28178</quad4>
			<quad4 id="850">28208,28239,28240,28209</quad4>
			<quad4 id="851">28239,28270,28271,28240</quad4>
			<quad4 id="852">28270,28301,28302,28271</quad4>
			<quad4 id="853">28301,28332,28333,28302</quad4>
			<quad4 id="854">28332,28363,28364,28333</quad4>
			<quad4 id="855">28363,28394,28395,28364</quad4>
			<quad4 id="856">28394,28425,28426,28395</quad4>
			<quad4 id="857">28425,28456,28457,28426</quad4>
			<quad4 id="858">28456,28487,28488,28457</quad4>
			<quad4 id="859">28487,28518,28519,28488</quad4>
			<quad4 id="860">28518,28549,28550,28519</quad4>
			<quad4 id="861">28549,28580,28581,28550</quad4>
<!-- ... 9 like lines cut -->
			<tri3 id="871">27931,27961,27962</tri3>
			<quad4 id="872">27961,27992,27993,27962</quad4>
			<quad4 id="873">27992,28023,28024,27993</quad4>
			<quad4 id="874">28023,28054,28055,28024</quad4>
			<quad4 id="875">28054,28085,28086,28055</quad4>
			<quad4 id="876">28085,28116,28117,28086</quad4>
			<quad4 id="877">28116,28147,28148,28117</quad4>
			<quad4 id="878">28147,28178,28179,28148</quad4>
			<quad4 id="879">28178,28209,28210,28179</quad4>
			<quad4 id="880">28209,28240,28241,28210</quad4>
			<quad4 id="881">28240,28271,28272,28241</quad4>
			<quad4 id="882">28271,28302,28303,28272</quad4>
			<quad4 id="883">28302,28333,28334,28303</quad4>
			<quad4 id="884">28333,28364,28365,28334</quad4>
			<quad4 id="885">28364,28395,28396,28365</quad4>
			<quad4 id="886">28395,28426,28427,28396</quad4>
			<quad4 id="887">28426,28457,28458,28427</quad4>
			<quad4 id="888">28457,28488,28489,28458</quad4>
			<quad4 id="889">28488,28519,28520,28489</quad4>
			<quad4 id="890">28519,28550,28551,28520</quad4>
			<quad4 id="891">28550,28581,28582,28551</quad4>
<!-- ... 9 like lines cut -->
		</Surface>
		<Surface name="PrescribedEffectiveFluidPressure1">
			<quad4 id="1">901,902,1833,1832</quad4>
			<quad4 id="2">902,903,1834,1833</quad4>
			<quad4 id="3">903,904,1835,1834</quad4>
			<quad4 id="4">904,905,1836,1835</quad4>
			<quad4 id="5">905,906,1837,1836</quad4>
			<quad4 id="6">906,907,1838,1837</quad4>
			<quad4 id="7">907,908,1839,1838</quad4>
			<quad4 id="8">908,909,1840,1839</quad4>
			<quad4 id="9">909,910,1841,1840</quad4>
			<quad4 id="10">910,911,1842,1841</quad4>
			<quad4 id="11">911,912,1843,1842</quad4>
			<quad4 id="12">912,913,1844,1843</quad4>
			<quad4 id="13">913,914,1845,1844</quad4>
			<quad4 id="14">914,915,1846,1845</quad4>
			<quad4 id="15">915,916,1847,1846</quad4>
			<quad4 id="16">916,917,1848,1847</quad4>
			<quad4 id="17">917,918,1849,1848</quad4>
			<quad4 id="18">918,919,1850,1849</quad4>
			<quad4 id="19">919,920,1851,1850</quad4>
			<quad4 id="20">920,921,1852,1851</quad4>
<!-- ... 880 like lines cut -->
		</Surface>
	</Mesh>
	<MeshDomains>
		<SolidDomain name="Part1" mat="Material1"/>
		<SolidDomain name="Part1__2" mat="Material1"/>
	</MeshDomains>
	<Boundary>
		<bc name="FixZ" type="fix" node_set="@surface:FixZ">
			<dofs>z</dofs>
		</bc>
		<bc name="FixX" type="fix" node_set="@surface:FixX">
			<dofs>x</dofs>
		</bc>
		<bc name="FixY" type="fix" node_set="@surface:FixY">
			<dofs>y</dofs>
		</bc>
		<bc name="DispZ" type="prescribe" node_set="@surface:DispZ">
			<dof>z</dof>
			<scale lc="1">-0.25</scale>
			<relative>0</relative>
		</bc>
		<bc name="PrescribedEffectiveFluidPressure1" type="prescribe" node_set="@surface:PrescribedEffectiveFluidPressure1">
			<dof>p</dof>
			<scale lc="2">0</scale>
			<relative>1</relative>
		</bc>
	</Boundary>
	<LoadData>
		<load_controller id="1" type="loadcurve">
			<interpolate>SMOOTH</interpolate>
			<points>
				<point>0,0</point>
				<point>1,1</point>
			</points>
		</load_controller>
		<load_controller id="2" type="loadcurve">
			<interpolate>SMOOTH</interpolate>
			<points>
				<point>0,0</point>
				<point>10,1</point>
			</points>
		</load_controller>
	</LoadData>
	<Output>
		<plotfile type="febio">
			<var type="displacement"/>
			<var type="reaction forces"/>
			<var type="relative volume"/>
			<var type="rigid force"/>
			<var type="stress"/>
			<var type="effective fluid pressure"/>
			<var type="fluid flux"/>
			<var type="solid stress"/>
		</plotfile>
	</Output>
</febio_spec>
