<?xml version="1.0" encoding="ISO-8859-1"?>
<febio_spec version="2.5">
	<Module type="solid"/>
	<Globals>
		<Constants>
			<T>0</T>
			<R>0</R>
			<Fc>0</Fc>
		</Constants>
	</Globals>
	<Material>
		<material id="1" name="Material1" type="Mooney-Rivlin">
			<density>1</density>
			<c1>1</c1>
			<c2>0</c2>
			<k>100</k>
		</material>
		<material id="2" name="Material2" type="rigid body">
			<density>1</density>
			<center_of_mass>0,0,0</center_of_mass>
		</material>
	</Material>
	<Geometry>
		<Nodes name="Object04">
			<node id="1">  0.0000000e+00,  0.0000000e+00,  0.0000000e+00</node>
			<node id="2">  5.4644661e-01,  0.0000000e+00,  0.0000000e+00</node>
			<node id="3">  9.0000000e-01,  0.0000000e+00,  0.0000000e+00</node>
			<node id="4">  1.0000000e+00,  0.0000000e+00,  0.0000000e+00</node>
			<node id="5">  1.0000000e+00,  1.0000000e+00,  0.0000000e+00</node>
			<node id="6">  9.0000000e-01,  1.0000000e+00,  0.0000000e+00</node>
			<node id="7">  5.4644661e-01,  1.1464466e+00,  0.0000000e+00</node>
			<node id="8">  4.0000000e-01,  1.5000000e+00,  0.0000000e+00</node>
			<node id="9">  4.0000000e-01,  4.0000000e+00,  0.0000000e+00</node>
			<node id="10">  0.0000000e+00,  4.0000000e+00,  0.0000000e+00</node>
			<node id="11">  0.0000000e+00,  1.5000000e+00,  0.0000000e+00</node>
			<node id="12">  0.0000000e+00,  1.1464466e+00,  0.0000000e+00</node>
			<node id="13">  0.0000000e+00,  0.0000000e+00,  5.0000000e-01</node>
			<node id="14">  5.4644661e-01,  0.0000000e+00,  5.0000000e-01</node>
			<node id="15">  9.0000000e-01,  0.0000000e+00,  5.0000000e-01</node>
			<node id="16">  1.0000000e+00,  0.0000000e+00,  5.0000000e-01</node>
			<node id="17">  1.0000000e+00,  1.0000000e+00,  5.0000000e-01</node>
			<node id="18">  9.0000000e-01,  1.0000000e+00,  5.0000000e-01</node>
			<node id="19">  5.4644661e-01,  1.1464466e+00,  5.0000000e-01</node>
			<node id="20">  4.0000000e-01,  1.5000000e+00,  5.0000000e-01</node>
<!-- ... 2985 like lines cut -->
		</Nodes>
		<Nodes name="Object05">
			<node id="3006">  0.0000000e+00,  0.0000000e+00,  5.0000000e-01</node>
			<node id="3007">  0.0000000e+00,  0.0000000e+00,  6.2500000e-01</node>
			<node id="3008">  0.0000000e+00,  0.0000000e+00,  7.5000000e-01</node>
			<node id="3009">  0.0000000e+00,  0.0000000e+00,  8.7500000e-01</node>
			<node id="3010">  0.0000000e+00,  0.0000000e+00,  1.0000000e+00</node>
			<node id="3011">  0.0000000e+00,  1.2500000e-01,  5.0000000e-01</node>
			<node id="3012">  0.0000000e+00,  1.2500000e-01,  6.2500000e-01</node>
			<node id="3013">  0.0000000e+00,  1.2500000e-01,  7.5000000e-01</node>
			<node id="3014">  0.0000000e+00,  1.2500000e-01,  8.7500000e-01</node>
			<node id="3015">  0.0000000e+00,  1.2500000e-01,  1.0000000e+00</node>
			<node id="3016">  0.0000000e+00,  2.5000000e-01,  5.0000000e-01</node>
			<node id="3017">  0.0000000e+00,  2.5000000e-01,  6.2500000e-01</node>
			<node id="3018">  0.0000000e+00,  2.5000000e-01,  7.5000000e-01</node>
			<node id="3019">  0.0000000e+00,  2.5000000e-01,  8.7500000e-01</node>
			<node id="3020">  0.0000000e+00,  2.5000000e-01,  1.0000000e+00</node>
			<node id="3021">  0.0000000e+00,  3.7500000e-01,  5.0000000e-01</node>
			<node id="3022">  0.0000000e+00,  3.7500000e-01,  6.2500000e-01</node>
			<node id="3023">  0.0000000e+00,  3.7500000e-01,  7.5000000e-01</node>
			<node id="3024">  0.0000000e+00,  3.7500000e-01,  8.7500000e-01</node>
			<node id="3025">  0.0000000e+00,  3.7500000e-01,  1.0000000e+00</node>
<!-- ... 205 like lines cut -->
		</Nodes>
		<Elements type="hex8" mat="1" name="Part1">
			<elem id="1">     1,    25,   727,   115,    38,   497,  1893,   604</elem>
			<elem id="2">    25,    26,   728,   727,   497,   498,  1894,  1893</elem>
			<elem id="3">    26,    27,   729,   728,   498,   499,  1895,  1894</elem>
			<elem id="4">    27,    28,   730,   729,   499,   500,  1896,  1895</elem>
			<elem id="5">    28,     2,    39,   730,   500,    29,   509,  1896</elem>
			<elem id="6">   115,   727,   723,   114,   604,  1893,  1897,   603</elem>
			<elem id="7">   727,   728,   724,   723,  1893,  1894,  1898,  1897</elem>
			<elem id="8">   728,   729,   725,   724,  1894,  1895,  1899,  1898</elem>
			<elem id="9">   729,   730,   726,   725,  1895,  1896,  1900,  1899</elem>
			<elem id="10">   730,    39,    40,   726,  1896,   509,   510,  1900</elem>
			<elem id="11">   114,   723,   719,   113,   603,  1897,  1901,   602</elem>
			<elem id="12">   723,   724,   720,   719,  1897,  1898,  1902,  1901</elem>
			<elem id="13">   724,   725,   721,   720,  1898,  1899,  1903,  1902</elem>
			<elem id="14">   725,   726,   722,   721,  1899,  1900,  1904,  1903</elem>
			<elem id="15">   726,    40,    41,   722,  1900,   510,   511,  1904</elem>
			<elem id="16">   113,   719,   715,   112,   602,  1901,  1905,   601</elem>
			<elem id="17">   719,   720,   716,   715,  1901,  1902,  1906,  1905</elem>
			<elem id="18">   720,   721,   717,   716,  1902,  1903,  1907,  1906</elem>
			<elem id="19">   721,   722,   718,   717,  1903,  1904,  1908,  1907</elem>
			<elem id="20">   722,    41,    42,   718,  1904,   511,   512,  1908</elem>
<!-- ... 2020 like lines cut -->
		</Elements>
		<Elements type="hex8" mat="2" name="Part2">
			<elem id="2041">  3006,  3031,  3036,  3011,  3007,  3032,  3037,  3012</elem>
			<elem id="2042">  3007,  3032,  3037,  3012,  3008,  3033,  3038,  3013</elem>
			<elem id="2043">  3008,  3033,  3038,  3013,  3009,  3034,  3039,  3014</elem>
			<elem id="2044">  3009,  3034,  3039,  3014,  3010,  3035,  3040,  3015</elem>
			<elem id="2045">  3011,  3036,  3041,  3016,  3012,  3037,  3042,  3017</elem>
			<elem id="2046">  3012,  3037,  3042,  3017,  3013,  3038,  3043,  3018</elem>
			<elem id="2047">  3013,  3038,  3043,  3018,  3014,  3039,  3044,  3019</elem>
			<elem id="2048">  3014,  3039,  3044,  3019,  3015,  3040,  3045,  3020</elem>
			<elem id="2049">  3016,  3041,  3046,  3021,  3017,  3042,  3047,  3022</elem>
			<elem id="2050">  3017,  3042,  3047,  3022,  3018,  3043,  3048,  3023</elem>
			<elem id="2051">  3018,  3043,  3048,  3023,  3019,  3044,  3049,  3024</elem>
			<elem id="2052">  3019,  3044,  3049,  3024,  3020,  3045,  3050,  3025</elem>
			<elem id="2053">  3021,  3046,  3051,  3026,  3022,  3047,  3052,  3027</elem>
			<elem id="2054">  3022,  3047,  3052,  3027,  3023,  3048,  3053,  3028</elem>
			<elem id="2055">  3023,  3048,  3053,  3028,  3024,  3049,  3054,  3029</elem>
			<elem id="2056">  3024,  3049,  3054,  3029,  3025,  3050,  3055,  3030</elem>
			<elem id="2057">  3031,  3056,  3061,  3036,  3032,  3057,  3062,  3037</elem>
			<elem id="2058">  3032,  3057,  3062,  3037,  3033,  3058,  3063,  3038</elem>
			<elem id="2059">  3033,  3058,  3063,  3038,  3034,  3059,  3064,  3039</elem>
			<elem id="2060">  3034,  3059,  3064,  3039,  3035,  3060,  3065,  3040</elem>
<!-- ... 108 like lines cut -->
		</Elements>
		<NodeSet name="FixedDisplacement1">
			<node id="9"/>
			<node id="10"/>
			<node id="21"/>
			<node id="22"/>
			<node id="333"/>
			<node id="334"/>
			<node id="335"/>
			<node id="386"/>
			<node id="387"/>
			<node id="388"/>
			<node id="389"/>
			<node id="390"/>
			<node id="391"/>
			<node id="392"/>
			<node id="393"/>
			<node id="394"/>
			<node id="395"/>
			<node id="396"/>
			<node id="1331"/>
			<node id="1332"/>
<!-- ... 10 like lines cut -->
		</NodeSet>
		<NodeSet name="FixedDisplacement2">
			<node id="1"/>
			<node id="10"/>
			<node id="11"/>
			<node id="12"/>
			<node id="13"/>
			<node id="22"/>
			<node id="23"/>
			<node id="24"/>
			<node id="36"/>
			<node id="37"/>
			<node id="38"/>
			<node id="88"/>
			<node id="89"/>
			<node id="90"/>
			<node id="95"/>
			<node id="96"/>
			<node id="97"/>
			<node id="98"/>
			<node id="99"/>
			<node id="100"/>
<!-- ... 385 like lines cut -->
		</NodeSet>
		<NodeSet name="FixedDisplacement3">
			<node id="1"/>
			<node id="2"/>
			<node id="3"/>
			<node id="4"/>
			<node id="5"/>
			<node id="6"/>
			<node id="7"/>
			<node id="8"/>
			<node id="9"/>
			<node id="10"/>
			<node id="11"/>
			<node id="12"/>
			<node id="25"/>
			<node id="26"/>
			<node id="27"/>
			<node id="28"/>
			<node id="39"/>
			<node id="40"/>
			<node id="41"/>
			<node id="42"/>
<!-- ... 581 like lines cut -->
		</NodeSet>
		<NodeSet name="Rigid1">
			<node id="13"/>
			<node id="14"/>
			<node id="15"/>
			<node id="16"/>
			<node id="32"/>
			<node id="33"/>
			<node id="34"/>
			<node id="35"/>
			<node id="74"/>
			<node id="75"/>
			<node id="76"/>
			<node id="77"/>
			<node id="78"/>
			<node id="79"/>
			<node id="80"/>
			<node id="81"/>
			<node id="82"/>
			<node id="83"/>
			<node id="116"/>
			<node id="117"/>
<!-- ... 101 like lines cut -->
		</NodeSet>
	</Geometry>
	<Boundary>
		<fix bc="y" node_set="FixedDisplacement1"/>
		<fix bc="x" node_set="FixedDisplacement2"/>
		<fix bc="z" node_set="FixedDisplacement3"/>
		<rigid name="Rigid1" rb="2" node_set="Rigid1"/>
		<rigid_body mat="2">
			<fixed bc="x"/>
			<fixed bc="Rx"/>
			<fixed bc="Ry"/>
			<fixed bc="Rz"/>
		</rigid_body>
	</Boundary>
	<Contact>
	</Contact>
	<LoadData>
		<loadcurve id="1" type="linear">
			<point>0,0</point>
			<point>0.5,1</point>
			<point>1,1</point>
		</loadcurve>
		<loadcurve id="2" type="linear">
			<point>0,0</point>
			<point>0.5,0</point>
			<point>1,1</point>
		</loadcurve>
	</LoadData>
	<Output>
		<plotfile type="febio">
			<var type="displacement"/>
			<var type="stress"/>
		</plotfile>
	</Output>
	<Step name="Step1">
		<Control>
			<time_steps>10</time_steps>
			<step_size>0.1</step_size>
			<max_refs>15</max_refs>
			<max_ups>10</max_ups>
			<diverge_reform>1</diverge_reform>
			<reform_each_time_step>1</reform_each_time_step>
			<dtol>0.001</dtol>
			<etol>0.01</etol>
			<rtol>0</rtol>
			<lstol>0.9</lstol>
			<min_residual>1e-20</min_residual>
			<qnmethod>0</qnmethod>
			<time_stepper>
				<dtmin>0.01</dtmin>
				<dtmax>0.1</dtmax>
				<max_retries>5</max_retries>
				<opt_iter>10</opt_iter>
			</time_stepper>
			<analysis type="static"/>
		</Control>
		<Boundary>
			<rigid_body mat="2">
				<prescribed bc="z" lc="1">-0.1</prescribed>
			</rigid_body>
			<rigid_body mat="2">
				<prescribed bc="y" lc="2">-0.5</prescribed>
			</rigid_body>
		</Boundary>
		<Constraints>
		</Constraints>
	</Step>
</febio_spec>
