<?xml version="1.0" encoding="ISO-8859-1"?>
<febio_spec version="2.5">
	<Module type="solid"/>
	<Control>
		<time_steps>10</time_steps>
		<step_size>0.1</step_size>
		<max_refs>15</max_refs>
		<max_ups>10</max_ups>
		<diverge_reform>1</diverge_reform>
		<reform_each_time_step>1</reform_each_time_step>
		<dtol>0.001</dtol>
		<etol>0.01</etol>
		<rtol>0</rtol>
		<lstol>0.9</lstol>
		<min_residual>1e-20</min_residual>
		<qnmethod>0</qnmethod>
		<time_stepper>
			<dtmin>0.01</dtmin>
			<dtmax>0.1</dtmax>
			<max_retries>5</max_retries>
			<opt_iter>10</opt_iter>
		</time_stepper>
		<analysis type="static"/>
	</Control>
	<Globals>
		<Constants>
			<T>0</T>
			<R>0</R>
			<Fc>0</Fc>
		</Constants>
	</Globals>
	<Material>
		<material id="1" name="testmaterial" type="Mooney-Rivlin">
			<density>1</density>
			<c1>1</c1>
			<c2>0</c2>
			<k>100</k>
		</material>
	</Material>
	<Geometry>
		<Nodes name="Object01">
			<node id="1"> -5.0000000e-01, -5.0000000e-01,  0.0000000e+00</node>
			<node id="2"> -5.0000000e-01, -5.0000000e-01,  1.0000000e-01</node>
			<node id="3"> -5.0000000e-01, -5.0000000e-01,  2.0000000e-01</node>
			<node id="4"> -5.0000000e-01, -5.0000000e-01,  3.0000000e-01</node>
			<node id="5"> -5.0000000e-01, -5.0000000e-01,  4.0000000e-01</node>
			<node id="6"> -5.0000000e-01, -5.0000000e-01,  5.0000000e-01</node>
			<node id="7"> -5.0000000e-01, -5.0000000e-01,  6.0000000e-01</node>
			<node id="8"> -5.0000000e-01, -5.0000000e-01,  7.0000000e-01</node>
			<node id="9"> -5.0000000e-01, -5.0000000e-01,  8.0000000e-01</node>
			<node id="10"> -5.0000000e-01, -5.0000000e-01,  9.0000000e-01</node>
			<node id="11"> -5.0000000e-01, -5.0000000e-01,  1.0000000e+00</node>
			<node id="12"> -5.0000000e-01, -5.0000000e-01,  1.1000000e+00</node>
			<node id="13"> -5.0000000e-01, -5.0000000e-01,  1.2000000e+00</node>
			<node id="14"> -5.0000000e-01, -5.0000000e-01,  1.3000000e+00</node>
			<node id="15"> -5.0000000e-01, -5.0000000e-01,  1.4000000e+00</node>
			<node id="16"> -5.0000000e-01, -5.0000000e-01,  1.5000000e+00</node>
			<node id="17"> -5.0000000e-01, -5.0000000e-01,  1.6000000e+00</node>
			<node id="18"> -5.0000000e-01, -5.0000000e-01,  1.7000000e+00</node>
			<node id="19"> -5.0000000e-01, -5.0000000e-01,  1.8000000e+00</node>
			<node id="20"> -5.0000000e-01, -5.0000000e-01,  1.9000000e+00</node>
<!-- ... 6151 like lines cut -->
		</Nodes>
		<Elements type="hex8" mat="1" name="Part1">
			<elem id="1">     1,   562,   613,    52,     2,   563,   614,    53</elem>
			<elem id="2">     2,   563,   614,    53,     3,   564,   615,    54</elem>
			<elem id="3">     3,   564,   615,    54,     4,   565,   616,    55</elem>
			<elem id="4">     4,   565,   616,    55,     5,   566,   617,    56</elem>
			<elem id="5">     5,   566,   617,    56,     6,   567,   618,    57</elem>
			<elem id="6">     6,   567,   618,    57,     7,   568,   619,    58</elem>
			<elem id="7">     7,   568,   619,    58,     8,   569,   620,    59</elem>
			<elem id="8">     8,   569,   620,    59,     9,   570,   621,    60</elem>
			<elem id="9">     9,   570,   621,    60,    10,   571,   622,    61</elem>
			<elem id="10">    10,   571,   622,    61,    11,   572,   623,    62</elem>
			<elem id="11">    11,   572,   623,    62,    12,   573,   624,    63</elem>
			<elem id="12">    12,   573,   624,    63,    13,   574,   625,    64</elem>
			<elem id="13">    13,   574,   625,    64,    14,   575,   626,    65</elem>
			<elem id="14">    14,   575,   626,    65,    15,   576,   627,    66</elem>
			<elem id="15">    15,   576,   627,    66,    16,   577,   628,    67</elem>
			<elem id="16">    16,   577,   628,    67,    17,   578,   629,    68</elem>
			<elem id="17">    17,   578,   629,    68,    18,   579,   630,    69</elem>
			<elem id="18">    18,   579,   630,    69,    19,   580,   631,    70</elem>
			<elem id="19">    19,   580,   631,    70,    20,   581,   632,    71</elem>
			<elem id="20">    20,   581,   632,    71,    21,   582,   633,    72</elem>
<!-- ... 4980 like lines cut -->
		</Elements>
		<NodeSet name="FixedDisplacement1">
			<node id="1"/>
			<node id="52"/>
			<node id="103"/>
			<node id="154"/>
			<node id="205"/>
			<node id="256"/>
			<node id="307"/>
			<node id="358"/>
			<node id="409"/>
			<node id="460"/>
			<node id="511"/>
			<node id="562"/>
			<node id="613"/>
			<node id="664"/>
			<node id="715"/>
			<node id="766"/>
			<node id="817"/>
			<node id="868"/>
			<node id="919"/>
			<node id="970"/>
<!-- ... 101 like lines cut -->
		</NodeSet>
		<NodeSet name="PrescribedDisplacement1">
			<node id="51"/>
			<node id="102"/>
			<node id="153"/>
			<node id="204"/>
			<node id="255"/>
			<node id="306"/>
			<node id="357"/>
			<node id="408"/>
			<node id="459"/>
			<node id="510"/>
			<node id="561"/>
			<node id="612"/>
			<node id="663"/>
			<node id="714"/>
			<node id="765"/>
			<node id="816"/>
			<node id="867"/>
			<node id="918"/>
			<node id="969"/>
			<node id="1020"/>
<!-- ... 101 like lines cut -->
		</NodeSet>
	</Geometry>
	<Boundary>
		<fix bc="x,y,z" node_set="FixedDisplacement1"/>
		<prescribe bc="z" node_set="PrescribedDisplacement1">
			<scale lc="1">1</scale>
			<relative>0</relative>
		</prescribe>
	</Boundary>
	<LoadData>
		<loadcurve id="1" type="smooth">
			<point>0,0</point>
			<point>1,1</point>
		</loadcurve>
	</LoadData>
	<Output>
		<plotfile type="febio">
			<var type="displacement"/>
			<var type="stress"/>
		</plotfile>
	</Output>
</febio_spec>
